--- Setup: Creating OpenFOAM wrappers ---

====== Stage 1: snappyHexMesh ======
>>> SKIP: mesh già presente in wingMotion2D_simpleFoam/constant/polyMesh

====== Stage 2: simpleFoam ======
>>> Nessuna soluzione trovata, eseguo simpleFoam...
--- Running simpleFoam  ---
/*---------------------------------------------------------------------------*\
  =========                 |
  \\      /  F ield         | OpenFOAM: The Open Source CFD Toolbox
   \\    /   O peration     | Website:  https://openfoam.org
    \\  /    A nd           | Version:  7
     \\/     M anipulation  |
\*---------------------------------------------------------------------------*/
Build  : 7-1ff648926f77
Exec   : simpleFoam
Date   : Mar 14 2026
Time   : 18:13:42
Host   : "cpu01.mate.polimi.it"
PID    : 3207513
I/O    : uncollated
Case   : /work/u10677113/NACA2312/wingMotion2D_simpleFoam
nProcs : 1
sigFpe : Enabling floating point exception trapping (FOAM_SIGFPE).
fileModificationChecking : Monitoring run-time modified files using timeStampMaster (fileModificationSkew 10)
allowSystemOperations : Allowing user-supplied system call operations

// * * * * * * * * * * * * * * * * * * * * * * * * * * * * * * * * * * * * * //
Create time

Create mesh for time = 0


SIMPLE: Convergence criteria found
        p: tolerance 0.0001
        U: tolerance 0.0001
        "(k|omega)": tolerance 0.0001

Reading field p

Reading field U

Reading/calculating face flux field phi

Selecting incompressible transport model Newtonian
Selecting turbulence model type RAS
Selecting RAS turbulence model kOmegaSST
Selecting patchDistMethod meshWave
RAS
{
    RASModel        kOmegaSST;
    turbulence      on;
    printCoeffs     on;
    alphaK1         0.85;
    alphaK2         1;
    alphaOmega1     0.5;
    alphaOmega2     0.856;
    gamma1          0.555556;
    gamma2          0.44;
    beta1           0.075;
    beta2           0.0828;
    betaStar        0.09;
    a1              0.31;
    b1              1;
    c1              10;
    F3              false;
}

No MRF models present

No finite volume options present

Starting time loop

forces forces:
    Not including porosity effects
forces forceCoeffs:
    Not including porosity effects
forceCoeffs forceCoeffs:
    Not including porosity effects
Time = 1

smoothSolver:  Solving for Ux, Initial residual = 1, Final residual = 0.00890088, No Iterations 6
smoothSolver:  Solving for Uy, Initial residual = 1, Final residual = 0.00744069, No Iterations 8
GAMG:  Solving for p, Initial residual = 1, Final residual = 0.00935751, No Iterations 11
time step continuity errors : sum local = 0.000397074, global = -2.70484e-05, cumulative = -2.70484e-05
smoothSolver:  Solving for omega, Initial residual = 0.0256963, Final residual = 0.000169835, No Iterations 4
smoothSolver:  Solving for k, Initial residual = 1, Final residual = 0.00192352, No Iterations 3
ExecutionTime = 0.44 s  ClockTime = 0 s

Time = 2

smoothSolver:  Solving for Ux, Initial residual = 0.486208, Final residual = 0.00436284, No Iterations 7
smoothSolver:  Solving for Uy, Initial residual = 0.538751, Final residual = 0.00527981, No Iterations 7
GAMG:  Solving for p, Initial residual = 0.908334, Final residual = 0.00772442, No Iterations 6
time step continuity errors : sum local = 0.0428076, global = -0.000158521, cumulative = -0.000185569
smoothSolver:  Solving for omega, Initial residual = 0.0115729, Final residual = 4.1381e-05, No Iterations 5
smoothSolver:  Solving for k, Initial residual = 0.594692, Final residual = 0.00231773, No Iterations 3
ExecutionTime = 0.6 s  ClockTime = 1 s

Time = 3

smoothSolver:  Solving for Ux, Initial residual = 0.0370995, Final residual = 0.000265818, No Iterations 7
smoothSolver:  Solving for Uy, Initial residual = 0.0564522, Final residual = 0.000462366, No Iterations 7
GAMG:  Solving for p, Initial residual = 0.785917, Final residual = 0.00681032, No Iterations 8
time step continuity errors : sum local = 0.0195079, global = -0.000339009, cumulative = -0.000524578
smoothSolver:  Solving for omega, Initial residual = 0.0209457, Final residual = 8.59105e-05, No Iterations 5
smoothSolver:  Solving for k, Initial residual = 0.113591, Final residual = 0.000534839, No Iterations 3
ExecutionTime = 0.78 s  ClockTime = 1 s

Time = 4

smoothSolver:  Solving for Ux, Initial residual = 0.123892, Final residual = 0.000974372, No Iterations 8
smoothSolver:  Solving for Uy, Initial residual = 0.424542, Final residual = 0.00293139, No Iterations 8
GAMG:  Solving for p, Initial residual = 0.415698, Final residual = 0.003303, No Iterations 8
time step continuity errors : sum local = 0.0157763, global = -0.000484387, cumulative = -0.00100897
smoothSolver:  Solving for omega, Initial residual = 0.0129087, Final residual = 0.000127075, No Iterations 4
smoothSolver:  Solving for k, Initial residual = 0.0820238, Final residual = 0.000422944, No Iterations 3
ExecutionTime = 0.96 s  ClockTime = 1 s

Time = 5

smoothSolver:  Solving for Ux, Initial residual = 0.265227, Final residual = 0.00167488, No Iterations 8
smoothSolver:  Solving for Uy, Initial residual = 0.128794, Final residual = 0.00101556, No Iterations 7
GAMG:  Solving for p, Initial residual = 0.650833, Final residual = 0.00541655, No Iterations 7
time step continuity errors : sum local = 0.0192108, global = -0.000494054, cumulative = -0.00150302
smoothSolver:  Solving for omega, Initial residual = 0.0103025, Final residual = 5.41197e-05, No Iterations 4
smoothSolver:  Solving for k, Initial residual = 0.0582967, Final residual = 0.000403913, No Iterations 3
ExecutionTime = 1.13 s  ClockTime = 1 s

Time = 6

smoothSolver:  Solving for Ux, Initial residual = 0.276437, Final residual = 0.00159381, No Iterations 7
smoothSolver:  Solving for Uy, Initial residual = 0.309626, Final residual = 0.00175828, No Iterations 7
GAMG:  Solving for p, Initial residual = 0.47342, Final residual = 0.00401711, No Iterations 7
time step continuity errors : sum local = 0.0150559, global = -0.000268395, cumulative = -0.00177141
smoothSolver:  Solving for omega, Initial residual = 0.00951707, Final residual = 5.03319e-05, No Iterations 4
smoothSolver:  Solving for k, Initial residual = 0.0450614, Final residual = 0.000365136, No Iterations 3
ExecutionTime = 1.31 s  ClockTime = 1 s

Time = 7

smoothSolver:  Solving for Ux, Initial residual = 0.190916, Final residual = 0.00189413, No Iterations 7
smoothSolver:  Solving for Uy, Initial residual = 0.174891, Final residual = 0.00108682, No Iterations 7
GAMG:  Solving for p, Initial residual = 0.431507, Final residual = 0.00412698, No Iterations 7
time step continuity errors : sum local = 0.0148761, global = 9.23449e-05, cumulative = -0.00167907
smoothSolver:  Solving for omega, Initial residual = 0.00907208, Final residual = 5.68684e-05, No Iterations 4
smoothSolver:  Solving for k, Initial residual = 0.0383689, Final residual = 0.00034188, No Iterations 3
ExecutionTime = 1.48 s  ClockTime = 2 s

Time = 8

smoothSolver:  Solving for Ux, Initial residual = 0.0791609, Final residual = 0.000684272, No Iterations 6
smoothSolver:  Solving for Uy, Initial residual = 0.236332, Final residual = 0.00129781, No Iterations 7
GAMG:  Solving for p, Initial residual = 0.757673, Final residual = 0.00463503, No Iterations 7
time step continuity errors : sum local = 0.00905954, global = 0.000399765, cumulative = -0.0012793
smoothSolver:  Solving for omega, Initial residual = 0.0081195, Final residual = 4.49654e-05, No Iterations 4
smoothSolver:  Solving for k, Initial residual = 0.0356455, Final residual = 0.000115844, No Iterations 4
ExecutionTime = 1.65 s  ClockTime = 2 s

Time = 9

smoothSolver:  Solving for Ux, Initial residual = 0.0900367, Final residual = 0.000670486, No Iterations 7
smoothSolver:  Solving for Uy, Initial residual = 0.354682, Final residual = 0.00195521, No Iterations 7
GAMG:  Solving for p, Initial residual = 0.70028, Final residual = 0.00502563, No Iterations 8
time step continuity errors : sum local = 0.00781603, global = 0.000454276, cumulative = -0.000825029
smoothSolver:  Solving for omega, Initial residual = 0.00872636, Final residual = 3.94912e-05, No Iterations 4
smoothSolver:  Solving for k, Initial residual = 0.033411, Final residual = 0.000104578, No Iterations 4
ExecutionTime = 1.83 s  ClockTime = 2 s

Time = 10

smoothSolver:  Solving for Ux, Initial residual = 0.0984053, Final residual = 0.00091472, No Iterations 6
smoothSolver:  Solving for Uy, Initial residual = 0.277789, Final residual = 0.00146838, No Iterations 7
GAMG:  Solving for p, Initial residual = 0.4958, Final residual = 0.00411428, No Iterations 7
time step continuity errors : sum local = 0.0086402, global = 0.000325165, cumulative = -0.000499864
smoothSolver:  Solving for omega, Initial residual = 0.00876331, Final residual = 3.59972e-05, No Iterations 4
smoothSolver:  Solving for k, Initial residual = 0.0296569, Final residual = 9.31901e-05, No Iterations 4
ExecutionTime = 2 s  ClockTime = 2 s

forces forces write:
    sum of forces:
        pressure : (2032.23 312.939 -8.12048e-16)
        viscous  : (0.372578 0.13925 -3.36962e-18)
        porous   : (0 0 0)
    sum of moments:
        pressure : (-8.73293e-15 9.45708e-15 202.049)
        viscous  : (-8.50422e-18 5.61974e-18 0.108526)
        porous   : (0 0 0)

forceCoeffs forceCoeffs write:
    Cm    = 1.03142
    Cd    = 10.3704
    Cl    = 1.59734
    Cl(f) = 1.83009
    Cl(r) = -0.232746

Time = 11

smoothSolver:  Solving for Ux, Initial residual = 0.0925799, Final residual = 0.000543001, No Iterations 7
smoothSolver:  Solving for Uy, Initial residual = 0.16717, Final residual = 0.000901177, No Iterations 7
GAMG:  Solving for p, Initial residual = 0.505343, Final residual = 0.00426162, No Iterations 7
time step continuity errors : sum local = 0.0068438, global = 0.000145566, cumulative = -0.000354298
smoothSolver:  Solving for omega, Initial residual = 0.00720353, Final residual = 2.1989e-05, No Iterations 4
smoothSolver:  Solving for k, Initial residual = 0.0270408, Final residual = 0.000245064, No Iterations 3
ExecutionTime = 2.19 s  ClockTime = 2 s

Time = 12

smoothSolver:  Solving for Ux, Initial residual = 0.0640859, Final residual = 0.000439902, No Iterations 7
smoothSolver:  Solving for Uy, Initial residual = 0.136255, Final residual = 0.000832619, No Iterations 7
GAMG:  Solving for p, Initial residual = 0.673099, Final residual = 0.00616966, No Iterations 7
time step continuity errors : sum local = 0.00635223, global = 3.39004e-05, cumulative = -0.000320397
smoothSolver:  Solving for omega, Initial residual = 0.00725474, Final residual = 6.84452e-05, No Iterations 3
smoothSolver:  Solving for k, Initial residual = 0.0212353, Final residual = 0.000139302, No Iterations 3
ExecutionTime = 2.36 s  ClockTime = 2 s

Time = 13

smoothSolver:  Solving for Ux, Initial residual = 0.0465746, Final residual = 0.000245016, No Iterations 7
smoothSolver:  Solving for Uy, Initial residual = 0.133396, Final residual = 0.000691977, No Iterations 7
GAMG:  Solving for p, Initial residual = 0.504149, Final residual = 0.00436236, No Iterations 6
time step continuity errors : sum local = 0.00527887, global = -8.2024e-05, cumulative = -0.000402421
smoothSolver:  Solving for omega, Initial residual = 0.00666678, Final residual = 6.31958e-05, No Iterations 3
smoothSolver:  Solving for k, Initial residual = 0.0225138, Final residual = 0.000195977, No Iterations 3
ExecutionTime = 2.53 s  ClockTime = 3 s

Time = 14

smoothSolver:  Solving for Ux, Initial residual = 0.0359848, Final residual = 0.000314469, No Iterations 6
smoothSolver:  Solving for Uy, Initial residual = 0.112444, Final residual = 0.000564291, No Iterations 7
GAMG:  Solving for p, Initial residual = 0.375487, Final residual = 0.00273336, No Iterations 7
time step continuity errors : sum local = 0.00319569, global = -0.00019211, cumulative = -0.000594531
smoothSolver:  Solving for omega, Initial residual = 0.00569329, Final residual = 4.78388e-05, No Iterations 3
smoothSolver:  Solving for k, Initial residual = 0.0179077, Final residual = 0.00012128, No Iterations 3
ExecutionTime = 2.7 s  ClockTime = 3 s

Time = 15

smoothSolver:  Solving for Ux, Initial residual = 0.0282018, Final residual = 0.000164596, No Iterations 7
smoothSolver:  Solving for Uy, Initial residual = 0.0833806, Final residual = 0.000470311, No Iterations 7
GAMG:  Solving for p, Initial residual = 0.449118, Final residual = 0.00399471, No Iterations 6
time step continuity errors : sum local = 0.00344364, global = -0.000218567, cumulative = -0.000813098
smoothSolver:  Solving for omega, Initial residual = 0.00566917, Final residual = 1.37301e-05, No Iterations 4
smoothSolver:  Solving for k, Initial residual = 0.0168001, Final residual = 0.000109806, No Iterations 3
ExecutionTime = 2.87 s  ClockTime = 3 s

Time = 16

smoothSolver:  Solving for Ux, Initial residual = 0.0264167, Final residual = 0.000256235, No Iterations 6
smoothSolver:  Solving for Uy, Initial residual = 0.0592624, Final residual = 0.000548471, No Iterations 6
GAMG:  Solving for p, Initial residual = 0.594864, Final residual = 0.00580314, No Iterations 6
time step continuity errors : sum local = 0.00314024, global = -0.000129561, cumulative = -0.000942659
smoothSolver:  Solving for omega, Initial residual = 0.00482784, Final residual = 1.21136e-05, No Iterations 4
smoothSolver:  Solving for k, Initial residual = 0.0136754, Final residual = 7.37979e-05, No Iterations 3
ExecutionTime = 3.03 s  ClockTime = 3 s

Time = 17

smoothSolver:  Solving for Ux, Initial residual = 0.0206923, Final residual = 0.000205211, No Iterations 6
smoothSolver:  Solving for Uy, Initial residual = 0.05406, Final residual = 0.000302887, No Iterations 7
GAMG:  Solving for p, Initial residual = 0.541036, Final residual = 0.00533553, No Iterations 6
time step continuity errors : sum local = 0.0026864, global = 2.92523e-05, cumulative = -0.000913407
smoothSolver:  Solving for omega, Initial residual = 0.00392696, Final residual = 1.10997e-05, No Iterations 4
smoothSolver:  Solving for k, Initial residual = 0.0131403, Final residual = 7.0159e-05, No Iterations 3
ExecutionTime = 3.2 s  ClockTime = 3 s

Time = 18

smoothSolver:  Solving for Ux, Initial residual = 0.0158107, Final residual = 0.000151026, No Iterations 6
smoothSolver:  Solving for Uy, Initial residual = 0.0553991, Final residual = 0.000351305, No Iterations 7
GAMG:  Solving for p, Initial residual = 0.421495, Final residual = 0.00412987, No Iterations 7
time step continuity errors : sum local = 0.0022787, global = 0.000114918, cumulative = -0.000798488
smoothSolver:  Solving for omega, Initial residual = 0.0031158, Final residual = 9.89849e-06, No Iterations 4
smoothSolver:  Solving for k, Initial residual = 0.012599, Final residual = 6.93323e-05, No Iterations 3
ExecutionTime = 3.37 s  ClockTime = 3 s

Time = 19

smoothSolver:  Solving for Ux, Initial residual = 0.0163167, Final residual = 9.44015e-05, No Iterations 7
smoothSolver:  Solving for Uy, Initial residual = 0.0467901, Final residual = 0.00026862, No Iterations 7
GAMG:  Solving for p, Initial residual = 0.375803, Final residual = 0.00256409, No Iterations 7
time step continuity errors : sum local = 0.00123272, global = 9.7035e-05, cumulative = -0.000701453
smoothSolver:  Solving for omega, Initial residual = 0.00263823, Final residual = 8.6706e-06, No Iterations 4
smoothSolver:  Solving for k, Initial residual = 0.0122256, Final residual = 6.6757e-05, No Iterations 3
ExecutionTime = 3.54 s  ClockTime = 4 s

Time = 20

smoothSolver:  Solving for Ux, Initial residual = 0.0164494, Final residual = 9.16176e-05, No Iterations 7
smoothSolver:  Solving for Uy, Initial residual = 0.0364632, Final residual = 0.00019839, No Iterations 7
GAMG:  Solving for p, Initial residual = 0.373572, Final residual = 0.00351095, No Iterations 6
time step continuity errors : sum local = 0.00136295, global = 3.97788e-05, cumulative = -0.000661675
smoothSolver:  Solving for omega, Initial residual = 0.00222934, Final residual = 7.80814e-06, No Iterations 4
smoothSolver:  Solving for k, Initial residual = 0.0119346, Final residual = 6.31728e-05, No Iterations 3
ExecutionTime = 3.71 s  ClockTime = 4 s

forces forces write:
    sum of forces:
        pressure : (-42.6792 241.45 -6.46963e-17)
        viscous  : (0.246138 0.0695398 -1.55728e-19)
        porous   : (0 0 0)
    sum of moments:
        pressure : (-8.0675e-16 -8.57092e-16 48.6127)
        viscous  : (-3.35633e-18 -2.63924e-18 0.00870052)
        porous   : (0 0 0)

forceCoeffs forceCoeffs write:
    Cm    = 0.248068
    Cd    = -0.216495
    Cl    = 1.23224
    Cl(f) = 0.86419
    Cl(r) = 0.368053

Time = 21

smoothSolver:  Solving for Ux, Initial residual = 0.0145138, Final residual = 7.6936e-05, No Iterations 7
smoothSolver:  Solving for Uy, Initial residual = 0.0288602, Final residual = 0.000162903, No Iterations 7
GAMG:  Solving for p, Initial residual = 0.36408, Final residual = 0.00270035, No Iterations 7
time step continuity errors : sum local = 0.00095138, global = -1.56044e-05, cumulative = -0.000677279
smoothSolver:  Solving for omega, Initial residual = 0.0019404, Final residual = 7.14467e-06, No Iterations 4
smoothSolver:  Solving for k, Initial residual = 0.0119878, Final residual = 6.09995e-05, No Iterations 3
ExecutionTime = 3.89 s  ClockTime = 4 s

Time = 22

smoothSolver:  Solving for Ux, Initial residual = 0.0124094, Final residual = 7.36923e-05, No Iterations 7
smoothSolver:  Solving for Uy, Initial residual = 0.0258275, Final residual = 0.00016524, No Iterations 7
GAMG:  Solving for p, Initial residual = 0.332692, Final residual = 0.00266022, No Iterations 6
time step continuity errors : sum local = 0.000878778, global = -5.48638e-05, cumulative = -0.000732143
smoothSolver:  Solving for omega, Initial residual = 0.00169803, Final residual = 6.52669e-06, No Iterations 4
smoothSolver:  Solving for k, Initial residual = 0.0121479, Final residual = 6.20166e-05, No Iterations 3
ExecutionTime = 4.06 s  ClockTime = 4 s

Time = 23

smoothSolver:  Solving for Ux, Initial residual = 0.0125174, Final residual = 7.73729e-05, No Iterations 7
smoothSolver:  Solving for Uy, Initial residual = 0.0226639, Final residual = 0.000138161, No Iterations 7
GAMG:  Solving for p, Initial residual = 0.319051, Final residual = 0.00265416, No Iterations 7
time step continuity errors : sum local = 0.000794074, global = -7.94776e-05, cumulative = -0.00081162
smoothSolver:  Solving for omega, Initial residual = 0.00148217, Final residual = 6.23242e-06, No Iterations 4
smoothSolver:  Solving for k, Initial residual = 0.0121524, Final residual = 6.32677e-05, No Iterations 3
ExecutionTime = 4.23 s  ClockTime = 4 s

Time = 24

smoothSolver:  Solving for Ux, Initial residual = 0.0129441, Final residual = 7.92326e-05, No Iterations 7
smoothSolver:  Solving for Uy, Initial residual = 0.0201399, Final residual = 0.000117869, No Iterations 7
GAMG:  Solving for p, Initial residual = 0.321923, Final residual = 0.00283237, No Iterations 6
time step continuity errors : sum local = 0.000746439, global = -8.02412e-05, cumulative = -0.000891862
smoothSolver:  Solving for omega, Initial residual = 0.00128606, Final residual = 5.94618e-06, No Iterations 4
smoothSolver:  Solving for k, Initial residual = 0.0122126, Final residual = 6.53207e-05, No Iterations 3
ExecutionTime = 4.4 s  ClockTime = 4 s

Time = 25

smoothSolver:  Solving for Ux, Initial residual = 0.0122937, Final residual = 7.24017e-05, No Iterations 7
smoothSolver:  Solving for Uy, Initial residual = 0.0196117, Final residual = 0.00012682, No Iterations 7
GAMG:  Solving for p, Initial residual = 0.309741, Final residual = 0.00236191, No Iterations 6
time step continuity errors : sum local = 0.000573879, global = -3.85244e-05, cumulative = -0.000930386
smoothSolver:  Solving for omega, Initial residual = 0.00113067, Final residual = 5.64578e-06, No Iterations 4
smoothSolver:  Solving for k, Initial residual = 0.0122193, Final residual = 6.7776e-05, No Iterations 3
ExecutionTime = 4.57 s  ClockTime = 5 s

Time = 26

smoothSolver:  Solving for Ux, Initial residual = 0.0114915, Final residual = 7.15502e-05, No Iterations 7
smoothSolver:  Solving for Uy, Initial residual = 0.0181945, Final residual = 0.000119164, No Iterations 7
GAMG:  Solving for p, Initial residual = 0.283951, Final residual = 0.00271785, No Iterations 6
time step continuity errors : sum local = 0.000614918, global = 2.62145e-05, cumulative = -0.000904172
smoothSolver:  Solving for omega, Initial residual = 0.00102409, Final residual = 5.38449e-06, No Iterations 4
smoothSolver:  Solving for k, Initial residual = 0.0122461, Final residual = 7.03811e-05, No Iterations 3
ExecutionTime = 4.74 s  ClockTime = 5 s

Time = 27

smoothSolver:  Solving for Ux, Initial residual = 0.0114241, Final residual = 7.16065e-05, No Iterations 7
smoothSolver:  Solving for Uy, Initial residual = 0.0160551, Final residual = 0.000102821, No Iterations 7
GAMG:  Solving for p, Initial residual = 0.273806, Final residual = 0.00214658, No Iterations 6
time step continuity errors : sum local = 0.000462985, global = 7.64477e-05, cumulative = -0.000827724
smoothSolver:  Solving for omega, Initial residual = 0.000938219, Final residual = 4.99921e-06, No Iterations 4
smoothSolver:  Solving for k, Initial residual = 0.0122446, Final residual = 7.28088e-05, No Iterations 3
ExecutionTime = 4.9 s  ClockTime = 5 s

Time = 28

smoothSolver:  Solving for Ux, Initial residual = 0.0116083, Final residual = 7.21917e-05, No Iterations 7
smoothSolver:  Solving for Uy, Initial residual = 0.0151392, Final residual = 9.49162e-05, No Iterations 7
GAMG:  Solving for p, Initial residual = 0.258051, Final residual = 0.00212453, No Iterations 6
time step continuity errors : sum local = 0.000449701, global = 7.85131e-05, cumulative = -0.000749211
smoothSolver:  Solving for omega, Initial residual = 0.000850362, Final residual = 4.6379e-06, No Iterations 4
smoothSolver:  Solving for k, Initial residual = 0.0122039, Final residual = 7.68068e-05, No Iterations 3
ExecutionTime = 5.07 s  ClockTime = 5 s

Time = 29

smoothSolver:  Solving for Ux, Initial residual = 0.0115305, Final residual = 7.19842e-05, No Iterations 7
smoothSolver:  Solving for Uy, Initial residual = 0.0152216, Final residual = 9.77157e-05, No Iterations 7
GAMG:  Solving for p, Initial residual = 0.239169, Final residual = 0.00237179, No Iterations 6
time step continuity errors : sum local = 0.000498693, global = 4.51744e-05, cumulative = -0.000704036
smoothSolver:  Solving for omega, Initial residual = 0.000785616, Final residual = 4.28887e-06, No Iterations 4
smoothSolver:  Solving for k, Initial residual = 0.0121941, Final residual = 7.94293e-05, No Iterations 3
ExecutionTime = 5.24 s  ClockTime = 5 s

Time = 30

smoothSolver:  Solving for Ux, Initial residual = 0.0113078, Final residual = 7.04024e-05, No Iterations 7
smoothSolver:  Solving for Uy, Initial residual = 0.0148533, Final residual = 9.615e-05, No Iterations 7
GAMG:  Solving for p, Initial residual = 0.219403, Final residual = 0.00174174, No Iterations 6
time step continuity errors : sum local = 0.000353883, global = -6.96117e-06, cumulative = -0.000710998
smoothSolver:  Solving for omega, Initial residual = 0.000748938, Final residual = 3.99147e-06, No Iterations 4
smoothSolver:  Solving for k, Initial residual = 0.0121641, Final residual = 8.02511e-05, No Iterations 3
ExecutionTime = 5.41 s  ClockTime = 5 s

forces forces write:
    sum of forces:
        pressure : (-13.1969 205.504 -3.14803e-17)
        viscous  : (0.576763 0.0625589 -2.12112e-19)
        porous   : (0 0 0)
    sum of moments:
        pressure : (-9.9685e-16 -2.66947e-16 28.1896)
        viscous  : (-9.21612e-19 1.60297e-18 -0.000195545)
        porous   : (0 0 0)

forceCoeffs forceCoeffs write:
    Cm    = 0.143823
    Cd    = -0.0643887
    Cl    = 1.04881
    Cl(f) = 0.668227
    Cl(r) = 0.38058

Time = 31

smoothSolver:  Solving for Ux, Initial residual = 0.0111997, Final residual = 6.96937e-05, No Iterations 7
smoothSolver:  Solving for Uy, Initial residual = 0.0141394, Final residual = 9.04636e-05, No Iterations 7
GAMG:  Solving for p, Initial residual = 0.215851, Final residual = 0.00173719, No Iterations 6
time step continuity errors : sum local = 0.000333956, global = -4.80372e-05, cumulative = -0.000759035
smoothSolver:  Solving for omega, Initial residual = 0.000727867, Final residual = 3.78916e-06, No Iterations 4
smoothSolver:  Solving for k, Initial residual = 0.0120827, Final residual = 7.92504e-05, No Iterations 3
ExecutionTime = 5.58 s  ClockTime = 6 s

Time = 32

smoothSolver:  Solving for Ux, Initial residual = 0.0112283, Final residual = 6.98579e-05, No Iterations 7
smoothSolver:  Solving for Uy, Initial residual = 0.0134391, Final residual = 8.80166e-05, No Iterations 7
GAMG:  Solving for p, Initial residual = 0.218333, Final residual = 0.00150808, No Iterations 7
time step continuity errors : sum local = 0.000271463, global = -4.57227e-05, cumulative = -0.000804757
smoothSolver:  Solving for omega, Initial residual = 0.000685634, Final residual = 3.65757e-06, No Iterations 4
smoothSolver:  Solving for k, Initial residual = 0.0119703, Final residual = 7.81522e-05, No Iterations 3
ExecutionTime = 5.75 s  ClockTime = 6 s

Time = 33

smoothSolver:  Solving for Ux, Initial residual = 0.0112057, Final residual = 6.8088e-05, No Iterations 7
smoothSolver:  Solving for Uy, Initial residual = 0.0135802, Final residual = 8.87571e-05, No Iterations 7
GAMG:  Solving for p, Initial residual = 0.21913, Final residual = 0.0020463, No Iterations 6
time step continuity errors : sum local = 0.000340412, global = -2.85335e-05, cumulative = -0.000833291
smoothSolver:  Solving for omega, Initial residual = 0.000652383, Final residual = 3.58964e-06, No Iterations 4
smoothSolver:  Solving for k, Initial residual = 0.0118372, Final residual = 7.92189e-05, No Iterations 3
ExecutionTime = 5.92 s  ClockTime = 6 s

Time = 34

smoothSolver:  Solving for Ux, Initial residual = 0.0112055, Final residual = 6.76962e-05, No Iterations 7
smoothSolver:  Solving for Uy, Initial residual = 0.0137372, Final residual = 8.88474e-05, No Iterations 7
GAMG:  Solving for p, Initial residual = 0.205031, Final residual = 0.00194449, No Iterations 6
time step continuity errors : sum local = 0.000309249, global = 4.35222e-06, cumulative = -0.000828939
smoothSolver:  Solving for omega, Initial residual = 0.000606416, Final residual = 3.48141e-06, No Iterations 4
smoothSolver:  Solving for k, Initial residual = 0.0117284, Final residual = 7.9939e-05, No Iterations 3
ExecutionTime = 6.08 s  ClockTime = 6 s

Time = 35

smoothSolver:  Solving for Ux, Initial residual = 0.0112563, Final residual = 6.83624e-05, No Iterations 7
smoothSolver:  Solving for Uy, Initial residual = 0.013726, Final residual = 8.85555e-05, No Iterations 7
GAMG:  Solving for p, Initial residual = 0.198028, Final residual = 0.00133687, No Iterations 7
time step continuity errors : sum local = 0.00020029, global = 2.24866e-05, cumulative = -0.000806452
smoothSolver:  Solving for omega, Initial residual = 0.000582944, Final residual = 3.33134e-06, No Iterations 4
smoothSolver:  Solving for k, Initial residual = 0.0116256, Final residual = 8.00068e-05, No Iterations 3
ExecutionTime = 6.26 s  ClockTime = 6 s

Time = 36

smoothSolver:  Solving for Ux, Initial residual = 0.01119, Final residual = 6.83445e-05, No Iterations 7
smoothSolver:  Solving for Uy, Initial residual = 0.0135069, Final residual = 8.85703e-05, No Iterations 7
GAMG:  Solving for p, Initial residual = 0.185667, Final residual = 0.00155637, No Iterations 6
time step continuity errors : sum local = 0.00022112, global = 2.62778e-05, cumulative = -0.000780174
smoothSolver:  Solving for omega, Initial residual = 0.000564077, Final residual = 3.21015e-06, No Iterations 4
smoothSolver:  Solving for k, Initial residual = 0.0115387, Final residual = 7.93176e-05, No Iterations 3
ExecutionTime = 6.42 s  ClockTime = 6 s

Time = 37

smoothSolver:  Solving for Ux, Initial residual = 0.0110366, Final residual = 6.84248e-05, No Iterations 7
smoothSolver:  Solving for Uy, Initial residual = 0.0135321, Final residual = 8.7942e-05, No Iterations 7
GAMG:  Solving for p, Initial residual = 0.174114, Final residual = 0.0014117, No Iterations 6
time step continuity errors : sum local = 0.000194519, global = 1.72236e-05, cumulative = -0.000762951
smoothSolver:  Solving for omega, Initial residual = 0.000545247, Final residual = 3.14587e-06, No Iterations 4
smoothSolver:  Solving for k, Initial residual = 0.0115106, Final residual = 7.87154e-05, No Iterations 3
ExecutionTime = 6.59 s  ClockTime = 7 s

Time = 38

smoothSolver:  Solving for Ux, Initial residual = 0.0109139, Final residual = 6.78839e-05, No Iterations 7
smoothSolver:  Solving for Uy, Initial residual = 0.0135167, Final residual = 8.65161e-05, No Iterations 7
GAMG:  Solving for p, Initial residual = 0.155473, Final residual = 0.00109571, No Iterations 7
time step continuity errors : sum local = 0.00014849, global = 6.49274e-06, cumulative = -0.000756458
smoothSolver:  Solving for omega, Initial residual = 0.000525817, Final residual = 3.04054e-06, No Iterations 4
smoothSolver:  Solving for k, Initial residual = 0.0114847, Final residual = 7.89715e-05, No Iterations 3
ExecutionTime = 6.77 s  ClockTime = 7 s

Time = 39

smoothSolver:  Solving for Ux, Initial residual = 0.0108057, Final residual = 6.67982e-05, No Iterations 7
smoothSolver:  Solving for Uy, Initial residual = 0.0134654, Final residual = 8.65199e-05, No Iterations 7
GAMG:  Solving for p, Initial residual = 0.144926, Final residual = 0.00123234, No Iterations 6
time step continuity errors : sum local = 0.00016298, global = -4.39613e-06, cumulative = -0.000760854
smoothSolver:  Solving for omega, Initial residual = 0.000497391, Final residual = 2.89562e-06, No Iterations 4
smoothSolver:  Solving for k, Initial residual = 0.0114958, Final residual = 7.9042e-05, No Iterations 3
ExecutionTime = 6.94 s  ClockTime = 7 s

Time = 40

smoothSolver:  Solving for Ux, Initial residual = 0.0107198, Final residual = 6.67681e-05, No Iterations 7
smoothSolver:  Solving for Uy, Initial residual = 0.0134864, Final residual = 8.70464e-05, No Iterations 7
GAMG:  Solving for p, Initial residual = 0.136696, Final residual = 0.0012888, No Iterations 6
time step continuity errors : sum local = 0.000164115, global = -1.41366e-05, cumulative = -0.000774991
smoothSolver:  Solving for omega, Initial residual = 0.000470565, Final residual = 2.78532e-06, No Iterations 4
smoothSolver:  Solving for k, Initial residual = 0.0115015, Final residual = 7.92248e-05, No Iterations 3
ExecutionTime = 7.1 s  ClockTime = 7 s

forces forces write:
    sum of forces:
        pressure : (1.2422 163.159 -1.59743e-17)
        viscous  : (0.754723 0.0320721 -1.67891e-20)
        porous   : (0 0 0)
    sum of moments:
        pressure : (-7.13568e-16 -5.40813e-17 10.2794)
        viscous  : (-2.50901e-19 2.91149e-18 -0.0324495)
        porous   : (0 0 0)

forceCoeffs forceCoeffs write:
    Cm    = 0.0522805
    Cd    = 0.0101884
    Cl    = 0.83261
    Cl(f) = 0.468585
    Cl(r) = 0.364024

Time = 41

smoothSolver:  Solving for Ux, Initial residual = 0.0106062, Final residual = 6.65155e-05, No Iterations 7
smoothSolver:  Solving for Uy, Initial residual = 0.013567, Final residual = 8.66226e-05, No Iterations 7
GAMG:  Solving for p, Initial residual = 0.127404, Final residual = 0.00102782, No Iterations 6
time step continuity errors : sum local = 0.000124135, global = -1.66378e-05, cumulative = -0.000791629
smoothSolver:  Solving for omega, Initial residual = 0.000441756, Final residual = 2.7527e-06, No Iterations 4
smoothSolver:  Solving for k, Initial residual = 0.011502, Final residual = 7.96314e-05, No Iterations 3
ExecutionTime = 7.28 s  ClockTime = 7 s

Time = 42

smoothSolver:  Solving for Ux, Initial residual = 0.0104608, Final residual = 6.549e-05, No Iterations 7
smoothSolver:  Solving for Uy, Initial residual = 0.0136137, Final residual = 8.59956e-05, No Iterations 7
GAMG:  Solving for p, Initial residual = 0.121968, Final residual = 0.000949412, No Iterations 6
time step continuity errors : sum local = 0.000109136, global = -1.25902e-05, cumulative = -0.000804219
smoothSolver:  Solving for omega, Initial residual = 0.000417201, Final residual = 2.68951e-06, No Iterations 4
smoothSolver:  Solving for k, Initial residual = 0.0115159, Final residual = 8.04453e-05, No Iterations 3
ExecutionTime = 7.45 s  ClockTime = 7 s

Time = 43

smoothSolver:  Solving for Ux, Initial residual = 0.01035, Final residual = 6.46263e-05, No Iterations 7
smoothSolver:  Solving for Uy, Initial residual = 0.0137194, Final residual = 8.59821e-05, No Iterations 7
GAMG:  Solving for p, Initial residual = 0.112163, Final residual = 0.00104041, No Iterations 6
time step continuity errors : sum local = 0.000116098, global = 6.97931e-08, cumulative = -0.000804149
smoothSolver:  Solving for omega, Initial residual = 0.000397533, Final residual = 2.61932e-06, No Iterations 4
smoothSolver:  Solving for k, Initial residual = 0.0115201, Final residual = 8.08293e-05, No Iterations 3
ExecutionTime = 7.62 s  ClockTime = 8 s

Time = 44

smoothSolver:  Solving for Ux, Initial residual = 0.0103183, Final residual = 6.46391e-05, No Iterations 7
smoothSolver:  Solving for Uy, Initial residual = 0.0138672, Final residual = 8.61387e-05, No Iterations 7
GAMG:  Solving for p, Initial residual = 0.104566, Final residual = 0.000922932, No Iterations 6
time step continuity errors : sum local = 0.000100593, global = 1.23099e-05, cumulative = -0.000791839
smoothSolver:  Solving for omega, Initial residual = 0.000381419, Final residual = 2.52059e-06, No Iterations 4
smoothSolver:  Solving for k, Initial residual = 0.0115139, Final residual = 8.09088e-05, No Iterations 3
ExecutionTime = 7.79 s  ClockTime = 8 s

Time = 45

smoothSolver:  Solving for Ux, Initial residual = 0.0102868, Final residual = 6.43437e-05, No Iterations 7
smoothSolver:  Solving for Uy, Initial residual = 0.0139897, Final residual = 8.59416e-05, No Iterations 7
GAMG:  Solving for p, Initial residual = 0.0980263, Final residual = 0.000634332, No Iterations 7
time step continuity errors : sum local = 6.80374e-05, global = 1.07166e-05, cumulative = -0.000781123
smoothSolver:  Solving for omega, Initial residual = 0.000366935, Final residual = 2.43519e-06, No Iterations 4
smoothSolver:  Solving for k, Initial residual = 0.0115015, Final residual = 8.11625e-05, No Iterations 3
ExecutionTime = 7.96 s  ClockTime = 8 s

Time = 46

smoothSolver:  Solving for Ux, Initial residual = 0.0102494, Final residual = 6.393e-05, No Iterations 7
smoothSolver:  Solving for Uy, Initial residual = 0.0141166, Final residual = 8.5777e-05, No Iterations 7
GAMG:  Solving for p, Initial residual = 0.0939817, Final residual = 0.000613919, No Iterations 7
time step continuity errors : sum local = 6.58525e-05, global = 3.83756e-06, cumulative = -0.000777285
smoothSolver:  Solving for omega, Initial residual = 0.000358097, Final residual = 2.35218e-06, No Iterations 4
smoothSolver:  Solving for k, Initial residual = 0.0114869, Final residual = 8.13046e-05, No Iterations 3
ExecutionTime = 8.13 s  ClockTime = 8 s

Time = 47

smoothSolver:  Solving for Ux, Initial residual = 0.0102554, Final residual = 6.36329e-05, No Iterations 7
smoothSolver:  Solving for Uy, Initial residual = 0.0143726, Final residual = 8.63524e-05, No Iterations 7
GAMG:  Solving for p, Initial residual = 0.0910917, Final residual = 0.000608989, No Iterations 7
time step continuity errors : sum local = 6.46762e-05, global = -6.95547e-06, cumulative = -0.00078424
smoothSolver:  Solving for omega, Initial residual = 0.000350864, Final residual = 2.28885e-06, No Iterations 4
smoothSolver:  Solving for k, Initial residual = 0.0114588, Final residual = 8.10415e-05, No Iterations 3
ExecutionTime = 8.31 s  ClockTime = 8 s

Time = 48

smoothSolver:  Solving for Ux, Initial residual = 0.0102961, Final residual = 6.29717e-05, No Iterations 7
smoothSolver:  Solving for Uy, Initial residual = 0.0146582, Final residual = 8.68047e-05, No Iterations 7
GAMG:  Solving for p, Initial residual = 0.0908448, Final residual = 0.000632783, No Iterations 7
time step continuity errors : sum local = 6.58367e-05, global = -1.01581e-05, cumulative = -0.000794399
smoothSolver:  Solving for omega, Initial residual = 0.000343604, Final residual = 2.2237e-06, No Iterations 4
smoothSolver:  Solving for k, Initial residual = 0.0114168, Final residual = 8.05652e-05, No Iterations 3
ExecutionTime = 8.48 s  ClockTime = 9 s

Time = 49

smoothSolver:  Solving for Ux, Initial residual = 0.0103063, Final residual = 6.19921e-05, No Iterations 7
smoothSolver:  Solving for Uy, Initial residual = 0.0148426, Final residual = 8.66185e-05, No Iterations 7
GAMG:  Solving for p, Initial residual = 0.0913509, Final residual = 0.000577189, No Iterations 7
time step continuity errors : sum local = 5.81431e-05, global = -7.1242e-06, cumulative = -0.000801523
smoothSolver:  Solving for omega, Initial residual = 0.000333934, Final residual = 2.15933e-06, No Iterations 4
smoothSolver:  Solving for k, Initial residual = 0.0113651, Final residual = 7.99516e-05, No Iterations 3
ExecutionTime = 8.66 s  ClockTime = 9 s

Time = 50

smoothSolver:  Solving for Ux, Initial residual = 0.0102944, Final residual = 6.08844e-05, No Iterations 7
smoothSolver:  Solving for Uy, Initial residual = 0.0149597, Final residual = 8.58893e-05, No Iterations 7
GAMG:  Solving for p, Initial residual = 0.0902647, Final residual = 0.000576453, No Iterations 7
time step continuity errors : sum local = 5.68262e-05, global = 6.68629e-08, cumulative = -0.000801456
smoothSolver:  Solving for omega, Initial residual = 0.000325303, Final residual = 2.1237e-06, No Iterations 4
smoothSolver:  Solving for k, Initial residual = 0.0113039, Final residual = 7.92771e-05, No Iterations 3
ExecutionTime = 8.84 s  ClockTime = 9 s

forces forces write:
    sum of forces:
        pressure : (1.47422 150.891 -1.11588e-17)
        viscous  : (0.810688 0.0665958 -1.62772e-20)
        porous   : (0 0 0)
    sum of moments:
        pressure : (-6.86303e-16 -6.05397e-17 8.19602)
        viscous  : (-7.74334e-19 3.72697e-18 -0.0214521)
        porous   : (0 0 0)

forceCoeffs forceCoeffs write:
    Cm    = 0.041707
    Cd    = 0.0116577
    Cl    = 0.770192
    Cl(f) = 0.426803
    Cl(r) = 0.343389

Time = 51

smoothSolver:  Solving for Ux, Initial residual = 0.0103055, Final residual = 5.96581e-05, No Iterations 7
smoothSolver:  Solving for Uy, Initial residual = 0.015086, Final residual = 8.52909e-05, No Iterations 7
GAMG:  Solving for p, Initial residual = 0.0868295, Final residual = 0.000531187, No Iterations 7
time step continuity errors : sum local = 5.18585e-05, global = 5.73859e-06, cumulative = -0.000795717
smoothSolver:  Solving for omega, Initial residual = 0.000316217, Final residual = 2.08564e-06, No Iterations 4
smoothSolver:  Solving for k, Initial residual = 0.0112261, Final residual = 7.85538e-05, No Iterations 3
ExecutionTime = 9.01 s  ClockTime = 9 s

Time = 52

smoothSolver:  Solving for Ux, Initial residual = 0.010313, Final residual = 5.81254e-05, No Iterations 7
smoothSolver:  Solving for Uy, Initial residual = 0.0152322, Final residual = 8.47463e-05, No Iterations 7
GAMG:  Solving for p, Initial residual = 0.0819481, Final residual = 0.000759708, No Iterations 7
time step continuity errors : sum local = 7.42717e-05, global = 7.63951e-06, cumulative = -0.000788078
smoothSolver:  Solving for omega, Initial residual = 0.000304197, Final residual = 2.02764e-06, No Iterations 4
smoothSolver:  Solving for k, Initial residual = 0.011137, Final residual = 7.7895e-05, No Iterations 3
ExecutionTime = 9.19 s  ClockTime = 9 s

Time = 53

smoothSolver:  Solving for Ux, Initial residual = 0.010285, Final residual = 5.63787e-05, No Iterations 7
smoothSolver:  Solving for Uy, Initial residual = 0.0152983, Final residual = 8.40645e-05, No Iterations 7
GAMG:  Solving for p, Initial residual = 0.0759914, Final residual = 0.000723999, No Iterations 8
time step continuity errors : sum local = 7.12097e-05, global = 5.66552e-06, cumulative = -0.000782412
smoothSolver:  Solving for omega, Initial residual = 0.000291467, Final residual = 1.9728e-06, No Iterations 4
smoothSolver:  Solving for k, Initial residual = 0.0110435, Final residual = 7.6832e-05, No Iterations 3
ExecutionTime = 9.37 s  ClockTime = 9 s

Time = 54

smoothSolver:  Solving for Ux, Initial residual = 0.010245, Final residual = 5.46028e-05, No Iterations 7
smoothSolver:  Solving for Uy, Initial residual = 0.0153072, Final residual = 8.32604e-05, No Iterations 7
GAMG:  Solving for p, Initial residual = 0.0706861, Final residual = 0.000532513, No Iterations 9
time step continuity errors : sum local = 5.25612e-05, global = 1.68752e-06, cumulative = -0.000780725
smoothSolver:  Solving for omega, Initial residual = 0.000282467, Final residual = 1.91843e-06, No Iterations 4
smoothSolver:  Solving for k, Initial residual = 0.0109436, Final residual = 7.59021e-05, No Iterations 3
ExecutionTime = 9.56 s  ClockTime = 10 s

Time = 55

smoothSolver:  Solving for Ux, Initial residual = 0.0102053, Final residual = 5.25776e-05, No Iterations 7
smoothSolver:  Solving for Uy, Initial residual = 0.0152745, Final residual = 8.24123e-05, No Iterations 7
GAMG:  Solving for p, Initial residual = 0.067437, Final residual = 0.000486285, No Iterations 8
time step continuity errors : sum local = 4.78989e-05, global = -1.85331e-06, cumulative = -0.000782578
smoothSolver:  Solving for omega, Initial residual = 0.000272679, Final residual = 1.83419e-06, No Iterations 4
smoothSolver:  Solving for k, Initial residual = 0.0108253, Final residual = 7.48064e-05, No Iterations 3
ExecutionTime = 9.74 s  ClockTime = 10 s

Time = 56

smoothSolver:  Solving for Ux, Initial residual = 0.0101607, Final residual = 0.000100445, No Iterations 6
smoothSolver:  Solving for Uy, Initial residual = 0.0152433, Final residual = 8.14569e-05, No Iterations 7
GAMG:  Solving for p, Initial residual = 0.0637356, Final residual = 0.00045436, No Iterations 7
time step continuity errors : sum local = 4.4742e-05, global = -2.86516e-06, cumulative = -0.000785443
smoothSolver:  Solving for omega, Initial residual = 0.0002665, Final residual = 1.76185e-06, No Iterations 4
smoothSolver:  Solving for k, Initial residual = 0.0107014, Final residual = 7.33702e-05, No Iterations 3
ExecutionTime = 9.89 s  ClockTime = 10 s

Time = 57

smoothSolver:  Solving for Ux, Initial residual = 0.0101346, Final residual = 9.76351e-05, No Iterations 6
smoothSolver:  Solving for Uy, Initial residual = 0.0152374, Final residual = 8.06478e-05, No Iterations 7
GAMG:  Solving for p, Initial residual = 0.0604348, Final residual = 0.000601972, No Iterations 6
time step continuity errors : sum local = 5.9188e-05, global = -1.38462e-06, cumulative = -0.000786828
smoothSolver:  Solving for omega, Initial residual = 0.000263792, Final residual = 1.69534e-06, No Iterations 4
smoothSolver:  Solving for k, Initial residual = 0.0105771, Final residual = 7.21868e-05, No Iterations 3
ExecutionTime = 10.02 s  ClockTime = 10 s

Time = 58

smoothSolver:  Solving for Ux, Initial residual = 0.0101072, Final residual = 9.46859e-05, No Iterations 6
smoothSolver:  Solving for Uy, Initial residual = 0.0152662, Final residual = 8.03453e-05, No Iterations 7
GAMG:  Solving for p, Initial residual = 0.0569295, Final residual = 0.000387304, No Iterations 7
time step continuity errors : sum local = 3.80211e-05, global = 1.30037e-06, cumulative = -0.000785528
smoothSolver:  Solving for omega, Initial residual = 0.000262477, Final residual = 1.64845e-06, No Iterations 4
smoothSolver:  Solving for k, Initial residual = 0.0104475, Final residual = 7.10262e-05, No Iterations 3
ExecutionTime = 10.16 s  ClockTime = 10 s

Time = 59

smoothSolver:  Solving for Ux, Initial residual = 0.0100705, Final residual = 9.16296e-05, No Iterations 6
smoothSolver:  Solving for Uy, Initial residual = 0.0152945, Final residual = 8.0058e-05, No Iterations 7
GAMG:  Solving for p, Initial residual = 0.0567204, Final residual = 0.000425672, No Iterations 7
time step continuity errors : sum local = 4.18488e-05, global = 3.09694e-06, cumulative = -0.000782431
smoothSolver:  Solving for omega, Initial residual = 0.000262059, Final residual = 1.63622e-06, No Iterations 4
smoothSolver:  Solving for k, Initial residual = 0.0103199, Final residual = 7.00334e-05, No Iterations 3
ExecutionTime = 10.29 s  ClockTime = 10 s

Time = 60

smoothSolver:  Solving for Ux, Initial residual = 0.0100274, Final residual = 8.87105e-05, No Iterations 6
smoothSolver:  Solving for Uy, Initial residual = 0.0152563, Final residual = 7.91383e-05, No Iterations 7
GAMG:  Solving for p, Initial residual = 0.0572445, Final residual = 0.000466318, No Iterations 7
time step continuity errors : sum local = 4.58956e-05, global = 3.20173e-06, cumulative = -0.000779229
smoothSolver:  Solving for omega, Initial residual = 0.000260788, Final residual = 1.60861e-06, No Iterations 4
smoothSolver:  Solving for k, Initial residual = 0.0101943, Final residual = 6.91805e-05, No Iterations 3
ExecutionTime = 10.42 s  ClockTime = 10 s

forces forces write:
    sum of forces:
        pressure : (5.18321 181.769 -1.88951e-17)
        viscous  : (0.8812 0.0794768 -1.19693e-19)
        porous   : (0 0 0)
    sum of moments:
        pressure : (-8.85673e-16 -2.63087e-17 22.8267)
        viscous  : (-1.24607e-18 3.30132e-18 -0.0135178)
        porous   : (0 0 0)

forceCoeffs forceCoeffs write:
    Cm    = 0.116394
    Cd    = 0.0309409
    Cl    = 0.9278
    Cl(f) = 0.580294
    Cl(r) = 0.347506

Time = 61

smoothSolver:  Solving for Ux, Initial residual = 0.00998515, Final residual = 8.6091e-05, No Iterations 6
smoothSolver:  Solving for Uy, Initial residual = 0.015176, Final residual = 7.80954e-05, No Iterations 7
GAMG:  Solving for p, Initial residual = 0.0560384, Final residual = 0.000444525, No Iterations 7
time step continuity errors : sum local = 4.37988e-05, global = 1.7657e-06, cumulative = -0.000777463
smoothSolver:  Solving for omega, Initial residual = 0.000258269, Final residual = 1.55883e-06, No Iterations 4
smoothSolver:  Solving for k, Initial residual = 0.0100718, Final residual = 6.81524e-05, No Iterations 3
ExecutionTime = 10.55 s  ClockTime = 11 s

Time = 62

smoothSolver:  Solving for Ux, Initial residual = 0.00993469, Final residual = 8.34686e-05, No Iterations 6
smoothSolver:  Solving for Uy, Initial residual = 0.0150718, Final residual = 7.68621e-05, No Iterations 7
GAMG:  Solving for p, Initial residual = 0.0555705, Final residual = 0.000380158, No Iterations 7
time step continuity errors : sum local = 3.73917e-05, global = -4.40372e-07, cumulative = -0.000777904
smoothSolver:  Solving for omega, Initial residual = 0.00025735, Final residual = 1.5039e-06, No Iterations 4
smoothSolver:  Solving for k, Initial residual = 0.00995054, Final residual = 6.66431e-05, No Iterations 3
ExecutionTime = 10.7 s  ClockTime = 11 s

Time = 63

smoothSolver:  Solving for Ux, Initial residual = 0.00986725, Final residual = 8.10896e-05, No Iterations 6
smoothSolver:  Solving for Uy, Initial residual = 0.0149364, Final residual = 0.0001472, No Iterations 6
GAMG:  Solving for p, Initial residual = 0.0559954, Final residual = 0.000487597, No Iterations 6
time step continuity errors : sum local = 4.76351e-05, global = -2.69079e-06, cumulative = -0.000780594
smoothSolver:  Solving for omega, Initial residual = 0.000258065, Final residual = 1.47387e-06, No Iterations 4
smoothSolver:  Solving for k, Initial residual = 0.00984482, Final residual = 6.52074e-05, No Iterations 3
ExecutionTime = 10.84 s  ClockTime = 11 s

Time = 64

smoothSolver:  Solving for Ux, Initial residual = 0.00978205, Final residual = 7.86743e-05, No Iterations 6
smoothSolver:  Solving for Uy, Initial residual = 0.0147962, Final residual = 0.000143472, No Iterations 6
GAMG:  Solving for p, Initial residual = 0.0567447, Final residual = 0.000489329, No Iterations 6
time step continuity errors : sum local = 4.71941e-05, global = -4.28198e-06, cumulative = -0.000784876
smoothSolver:  Solving for omega, Initial residual = 0.000257013, Final residual = 1.4381e-06, No Iterations 4
smoothSolver:  Solving for k, Initial residual = 0.00974568, Final residual = 6.38833e-05, No Iterations 3
ExecutionTime = 10.97 s  ClockTime = 11 s

Time = 65

smoothSolver:  Solving for Ux, Initial residual = 0.00969495, Final residual = 7.62573e-05, No Iterations 6
smoothSolver:  Solving for Uy, Initial residual = 0.0146243, Final residual = 0.000138843, No Iterations 6
GAMG:  Solving for p, Initial residual = 0.0577208, Final residual = 0.000545011, No Iterations 6
time step continuity errors : sum local = 5.18544e-05, global = -4.78037e-06, cumulative = -0.000789657
smoothSolver:  Solving for omega, Initial residual = 0.000256084, Final residual = 1.37937e-06, No Iterations 4
smoothSolver:  Solving for k, Initial residual = 0.00965373, Final residual = 6.23715e-05, No Iterations 3
ExecutionTime = 11.11 s  ClockTime = 11 s

Time = 66

smoothSolver:  Solving for Ux, Initial residual = 0.00958777, Final residual = 7.37146e-05, No Iterations 6
smoothSolver:  Solving for Uy, Initial residual = 0.014424, Final residual = 0.000133573, No Iterations 6
GAMG:  Solving for p, Initial residual = 0.0578654, Final residual = 0.000394509, No Iterations 7
time step continuity errors : sum local = 3.69562e-05, global = -3.70411e-06, cumulative = -0.000793361
smoothSolver:  Solving for omega, Initial residual = 0.000253283, Final residual = 1.33849e-06, No Iterations 4
smoothSolver:  Solving for k, Initial residual = 0.00956524, Final residual = 6.07443e-05, No Iterations 3
ExecutionTime = 11.26 s  ClockTime = 11 s

Time = 67

smoothSolver:  Solving for Ux, Initial residual = 0.0094721, Final residual = 7.13553e-05, No Iterations 6
smoothSolver:  Solving for Uy, Initial residual = 0.0142293, Final residual = 0.000128674, No Iterations 6
GAMG:  Solving for p, Initial residual = 0.0601051, Final residual = 0.000388515, No Iterations 7
time step continuity errors : sum local = 3.585e-05, global = -1.84338e-06, cumulative = -0.000795204
smoothSolver:  Solving for omega, Initial residual = 0.000247813, Final residual = 1.29799e-06, No Iterations 4
smoothSolver:  Solving for k, Initial residual = 0.00948166, Final residual = 5.93823e-05, No Iterations 3
ExecutionTime = 11.39 s  ClockTime = 11 s

Time = 68

smoothSolver:  Solving for Ux, Initial residual = 0.00937032, Final residual = 6.97589e-05, No Iterations 6
smoothSolver:  Solving for Uy, Initial residual = 0.0140847, Final residual = 0.000124802, No Iterations 6
GAMG:  Solving for p, Initial residual = 0.0637128, Final residual = 0.000499627, No Iterations 6
time step continuity errors : sum local = 4.56686e-05, global = -2.23208e-08, cumulative = -0.000795226
smoothSolver:  Solving for omega, Initial residual = 0.000242259, Final residual = 1.27728e-06, No Iterations 4
smoothSolver:  Solving for k, Initial residual = 0.00940304, Final residual = 5.82385e-05, No Iterations 3
ExecutionTime = 11.54 s  ClockTime = 12 s

Time = 69

smoothSolver:  Solving for Ux, Initial residual = 0.00929529, Final residual = 6.89649e-05, No Iterations 6
smoothSolver:  Solving for Uy, Initial residual = 0.0140033, Final residual = 0.0001223, No Iterations 6
GAMG:  Solving for p, Initial residual = 0.0650145, Final residual = 0.00052951, No Iterations 6
time step continuity errors : sum local = 4.82261e-05, global = 6.64198e-07, cumulative = -0.000794562
smoothSolver:  Solving for omega, Initial residual = 0.000237263, Final residual = 1.25874e-06, No Iterations 4
smoothSolver:  Solving for k, Initial residual = 0.00933007, Final residual = 5.71414e-05, No Iterations 3
ExecutionTime = 11.68 s  ClockTime = 12 s

Time = 70

smoothSolver:  Solving for Ux, Initial residual = 0.00922462, Final residual = 6.85091e-05, No Iterations 6
smoothSolver:  Solving for Uy, Initial residual = 0.0139446, Final residual = 0.000120687, No Iterations 6
GAMG:  Solving for p, Initial residual = 0.0643068, Final residual = 0.000441858, No Iterations 7
time step continuity errors : sum local = 4.00978e-05, global = -1.92498e-07, cumulative = -0.000794755
smoothSolver:  Solving for omega, Initial residual = 0.000231167, Final residual = 1.22482e-06, No Iterations 4
smoothSolver:  Solving for k, Initial residual = 0.00926458, Final residual = 5.59829e-05, No Iterations 3
ExecutionTime = 11.83 s  ClockTime = 12 s

forces forces write:
    sum of forces:
        pressure : (3.88811 163.435 -1.24165e-17)
        viscous  : (0.949905 0.104367 -3.77933e-20)
        porous   : (0 0 0)
    sum of moments:
        pressure : (-7.50881e-16 -2.24966e-18 14.7095)
        viscous  : (-1.13666e-18 3.51964e-18 -0.00273101)
        porous   : (0 0 0)

forceCoeffs forceCoeffs write:
    Cm    = 0.0750345
    Cd    = 0.0246837
    Cl    = 0.834384
    Cl(f) = 0.492227
    Cl(r) = 0.342158

Time = 71

smoothSolver:  Solving for Ux, Initial residual = 0.00917664, Final residual = 6.85283e-05, No Iterations 6
smoothSolver:  Solving for Uy, Initial residual = 0.0139458, Final residual = 0.000119407, No Iterations 6
GAMG:  Solving for p, Initial residual = 0.0607717, Final residual = 0.000494042, No Iterations 7
time step continuity errors : sum local = 4.46704e-05, global = -1.67944e-06, cumulative = -0.000796434
smoothSolver:  Solving for omega, Initial residual = 0.000224445, Final residual = 1.19842e-06, No Iterations 4
smoothSolver:  Solving for k, Initial residual = 0.00920348, Final residual = 5.50629e-05, No Iterations 3
ExecutionTime = 12 s  ClockTime = 12 s

Time = 72

smoothSolver:  Solving for Ux, Initial residual = 0.00911465, Final residual = 6.84712e-05, No Iterations 6
smoothSolver:  Solving for Uy, Initial residual = 0.0140157, Final residual = 0.000119068, No Iterations 6
GAMG:  Solving for p, Initial residual = 0.057854, Final residual = 0.000431275, No Iterations 7
time step continuity errors : sum local = 3.8838e-05, global = -2.51513e-06, cumulative = -0.000798949
smoothSolver:  Solving for omega, Initial residual = 0.000219371, Final residual = 1.20219e-06, No Iterations 4
smoothSolver:  Solving for k, Initial residual = 0.00915298, Final residual = 5.42385e-05, No Iterations 3
ExecutionTime = 12.17 s  ClockTime = 12 s

Time = 73

smoothSolver:  Solving for Ux, Initial residual = 0.00903704, Final residual = 6.7905e-05, No Iterations 6
smoothSolver:  Solving for Uy, Initial residual = 0.0141282, Final residual = 0.000119098, No Iterations 6
GAMG:  Solving for p, Initial residual = 0.0562578, Final residual = 0.000445918, No Iterations 6
time step continuity errors : sum local = 4.00265e-05, global = -2.21729e-06, cumulative = -0.000801167
smoothSolver:  Solving for omega, Initial residual = 0.000214418, Final residual = 1.19837e-06, No Iterations 4
smoothSolver:  Solving for k, Initial residual = 0.00910715, Final residual = 5.32435e-05, No Iterations 3
ExecutionTime = 12.34 s  ClockTime = 12 s

Time = 74

smoothSolver:  Solving for Ux, Initial residual = 0.00895189, Final residual = 6.72531e-05, No Iterations 6
smoothSolver:  Solving for Uy, Initial residual = 0.0142228, Final residual = 0.000118629, No Iterations 6
GAMG:  Solving for p, Initial residual = 0.0557812, Final residual = 0.000544713, No Iterations 6
time step continuity errors : sum local = 4.87714e-05, global = -1.08345e-06, cumulative = -0.00080225
smoothSolver:  Solving for omega, Initial residual = 0.000207133, Final residual = 1.19279e-06, No Iterations 4
smoothSolver:  Solving for k, Initial residual = 0.00904128, Final residual = 5.22926e-05, No Iterations 3
ExecutionTime = 12.5 s  ClockTime = 13 s

Time = 75

smoothSolver:  Solving for Ux, Initial residual = 0.00886007, Final residual = 6.62787e-05, No Iterations 6
smoothSolver:  Solving for Uy, Initial residual = 0.0143149, Final residual = 0.000118026, No Iterations 6
GAMG:  Solving for p, Initial residual = 0.0551966, Final residual = 0.000405067, No Iterations 7
time step continuity errors : sum local = 3.62314e-05, global = -4.48942e-08, cumulative = -0.000802295
smoothSolver:  Solving for omega, Initial residual = 0.000200327, Final residual = 1.15247e-06, No Iterations 4
smoothSolver:  Solving for k, Initial residual = 0.00897497, Final residual = 5.1171e-05, No Iterations 3
ExecutionTime = 12.67 s  ClockTime = 13 s

Time = 76

smoothSolver:  Solving for Ux, Initial residual = 0.00876362, Final residual = 6.49433e-05, No Iterations 6
smoothSolver:  Solving for Uy, Initial residual = 0.0144083, Final residual = 0.000117279, No Iterations 6
GAMG:  Solving for p, Initial residual = 0.0533134, Final residual = 0.000513986, No Iterations 6
time step continuity errors : sum local = 4.60316e-05, global = 4.59209e-07, cumulative = -0.000801836
smoothSolver:  Solving for omega, Initial residual = 0.000192762, Final residual = 1.08564e-06, No Iterations 4
smoothSolver:  Solving for k, Initial residual = 0.00890218, Final residual = 4.99002e-05, No Iterations 3
ExecutionTime = 12.83 s  ClockTime = 13 s

Time = 77

smoothSolver:  Solving for Ux, Initial residual = 0.00864826, Final residual = 6.33586e-05, No Iterations 6
smoothSolver:  Solving for Uy, Initial residual = 0.0144734, Final residual = 0.000116032, No Iterations 6
GAMG:  Solving for p, Initial residual = 0.0503995, Final residual = 0.000406776, No Iterations 7
time step continuity errors : sum local = 3.65293e-05, global = 2.48784e-07, cumulative = -0.000801587
smoothSolver:  Solving for omega, Initial residual = 0.000185829, Final residual = 1.02208e-06, No Iterations 4
smoothSolver:  Solving for k, Initial residual = 0.00881843, Final residual = 4.85605e-05, No Iterations 3
ExecutionTime = 13 s  ClockTime = 13 s

Time = 78

smoothSolver:  Solving for Ux, Initial residual = 0.00853374, Final residual = 6.15944e-05, No Iterations 6
smoothSolver:  Solving for Uy, Initial residual = 0.0145006, Final residual = 0.000114303, No Iterations 6
GAMG:  Solving for p, Initial residual = 0.0485932, Final residual = 0.000371457, No Iterations 8
time step continuity errors : sum local = 3.34378e-05, global = -2.57663e-07, cumulative = -0.000801845
smoothSolver:  Solving for omega, Initial residual = 0.000178906, Final residual = 9.70338e-07, No Iterations 4
smoothSolver:  Solving for k, Initial residual = 0.00871419, Final residual = 4.70688e-05, No Iterations 3
ExecutionTime = 13.18 s  ClockTime = 13 s

Time = 79

smoothSolver:  Solving for Ux, Initial residual = 0.00840744, Final residual = 5.95904e-05, No Iterations 6
smoothSolver:  Solving for Uy, Initial residual = 0.014482, Final residual = 0.00011221, No Iterations 6
GAMG:  Solving for p, Initial residual = 0.0468491, Final residual = 0.000342448, No Iterations 8
time step continuity errors : sum local = 3.09053e-05, global = -7.03637e-07, cumulative = -0.000802548
smoothSolver:  Solving for omega, Initial residual = 0.000172332, Final residual = 9.28886e-07, No Iterations 4
smoothSolver:  Solving for k, Initial residual = 0.00859826, Final residual = 4.56292e-05, No Iterations 3
ExecutionTime = 13.35 s  ClockTime = 13 s

Time = 80

smoothSolver:  Solving for Ux, Initial residual = 0.00827177, Final residual = 5.73035e-05, No Iterations 6
smoothSolver:  Solving for Uy, Initial residual = 0.0144059, Final residual = 0.000109114, No Iterations 6
GAMG:  Solving for p, Initial residual = 0.0452562, Final residual = 0.000376801, No Iterations 7
time step continuity errors : sum local = 3.40967e-05, global = -8.80657e-07, cumulative = -0.000803429
smoothSolver:  Solving for omega, Initial residual = 0.000167144, Final residual = 9.17476e-07, No Iterations 4
smoothSolver:  Solving for k, Initial residual = 0.00847589, Final residual = 4.43139e-05, No Iterations 3
ExecutionTime = 13.52 s  ClockTime = 14 s

forces forces write:
    sum of forces:
        pressure : (5.53179 156.739 -1.62649e-17)
        viscous  : (0.986151 0.0807606 4.03603e-21)
        porous   : (0 0 0)
    sum of moments:
        pressure : (-7.73552e-16 -1.34107e-17 16.9153)
        viscous  : (-1.18305e-18 3.28636e-18 -0.0121322)
        porous   : (0 0 0)

forceCoeffs forceCoeffs write:
    Cm    = 0.0862406
    Cd    = 0.0332548
    Cl    = 0.800101
    Cl(f) = 0.486291
    Cl(r) = 0.31381

Time = 81

smoothSolver:  Solving for Ux, Initial residual = 0.00813677, Final residual = 5.50408e-05, No Iterations 6
smoothSolver:  Solving for Uy, Initial residual = 0.014308, Final residual = 0.000105979, No Iterations 6
GAMG:  Solving for p, Initial residual = 0.0441674, Final residual = 0.000316519, No Iterations 7
time step continuity errors : sum local = 2.86793e-05, global = -7.73772e-07, cumulative = -0.000804203
smoothSolver:  Solving for omega, Initial residual = 0.000163864, Final residual = 9.18895e-07, No Iterations 4
smoothSolver:  Solving for k, Initial residual = 0.00834823, Final residual = 4.31352e-05, No Iterations 3
ExecutionTime = 13.7 s  ClockTime = 14 s

Time = 82

smoothSolver:  Solving for Ux, Initial residual = 0.00800909, Final residual = 5.28839e-05, No Iterations 6
smoothSolver:  Solving for Uy, Initial residual = 0.0142783, Final residual = 0.000103688, No Iterations 6
GAMG:  Solving for p, Initial residual = 0.0429046, Final residual = 0.000410988, No Iterations 6
time step continuity errors : sum local = 3.73234e-05, global = -5.29745e-07, cumulative = -0.000804732
smoothSolver:  Solving for omega, Initial residual = 0.000162856, Final residual = 9.23833e-07, No Iterations 4
smoothSolver:  Solving for k, Initial residual = 0.0082302, Final residual = 4.21143e-05, No Iterations 3
ExecutionTime = 13.86 s  ClockTime = 14 s

Time = 83

smoothSolver:  Solving for Ux, Initial residual = 0.00788663, Final residual = 5.07707e-05, No Iterations 6
smoothSolver:  Solving for Uy, Initial residual = 0.0143012, Final residual = 0.000102296, No Iterations 6
GAMG:  Solving for p, Initial residual = 0.0428365, Final residual = 0.000411458, No Iterations 6
time step continuity errors : sum local = 3.76155e-05, global = -2.85599e-07, cumulative = -0.000805018
smoothSolver:  Solving for omega, Initial residual = 0.000163255, Final residual = 9.32902e-07, No Iterations 4
smoothSolver:  Solving for k, Initial residual = 0.00811941, Final residual = 4.12608e-05, No Iterations 3
ExecutionTime = 14.04 s  ClockTime = 14 s

Time = 84

smoothSolver:  Solving for Ux, Initial residual = 0.00777726, Final residual = 4.86937e-05, No Iterations 6
smoothSolver:  Solving for Uy, Initial residual = 0.0143499, Final residual = 0.0001014, No Iterations 6
GAMG:  Solving for p, Initial residual = 0.0420638, Final residual = 0.00030687, No Iterations 7
time step continuity errors : sum local = 2.82566e-05, global = -2.2013e-07, cumulative = -0.000805238
smoothSolver:  Solving for omega, Initial residual = 0.000162907, Final residual = 9.22976e-07, No Iterations 4
smoothSolver:  Solving for k, Initial residual = 0.00801356, Final residual = 4.05253e-05, No Iterations 3
ExecutionTime = 14.23 s  ClockTime = 14 s

Time = 85

smoothSolver:  Solving for Ux, Initial residual = 0.00767905, Final residual = 4.65507e-05, No Iterations 6
smoothSolver:  Solving for Uy, Initial residual = 0.0144204, Final residual = 0.000100434, No Iterations 6
GAMG:  Solving for p, Initial residual = 0.0406379, Final residual = 0.000406098, No Iterations 6
time step continuity errors : sum local = 3.75731e-05, global = -4.53823e-07, cumulative = -0.000805692
smoothSolver:  Solving for omega, Initial residual = 0.000161704, Final residual = 8.99863e-07, No Iterations 4
smoothSolver:  Solving for k, Initial residual = 0.0079148, Final residual = 3.98611e-05, No Iterations 3
ExecutionTime = 14.41 s  ClockTime = 14 s

Time = 86

smoothSolver:  Solving for Ux, Initial residual = 0.00758444, Final residual = 4.44436e-05, No Iterations 6
smoothSolver:  Solving for Uy, Initial residual = 0.0145166, Final residual = 9.93756e-05, No Iterations 6
GAMG:  Solving for p, Initial residual = 0.040169, Final residual = 0.000361108, No Iterations 7
time step continuity errors : sum local = 3.34009e-05, global = -9.07364e-07, cumulative = -0.000806599
smoothSolver:  Solving for omega, Initial residual = 0.000160974, Final residual = 8.58946e-07, No Iterations 4
smoothSolver:  Solving for k, Initial residual = 0.00781837, Final residual = 3.92065e-05, No Iterations 3
ExecutionTime = 14.6 s  ClockTime = 15 s

Time = 87

smoothSolver:  Solving for Ux, Initial residual = 0.00750575, Final residual = 4.24397e-05, No Iterations 6
smoothSolver:  Solving for Uy, Initial residual = 0.0146558, Final residual = 9.80591e-05, No Iterations 6
GAMG:  Solving for p, Initial residual = 0.040613, Final residual = 0.00035879, No Iterations 7
time step continuity errors : sum local = 3.31403e-05, global = -1.41418e-06, cumulative = -0.000808014
smoothSolver:  Solving for omega, Initial residual = 0.000161364, Final residual = 8.34398e-07, No Iterations 4
smoothSolver:  Solving for k, Initial residual = 0.00772898, Final residual = 3.85686e-05, No Iterations 3
ExecutionTime = 14.81 s  ClockTime = 15 s

Time = 88

smoothSolver:  Solving for Ux, Initial residual = 0.00744126, Final residual = 4.0612e-05, No Iterations 6
smoothSolver:  Solving for Uy, Initial residual = 0.0147934, Final residual = 9.66664e-05, No Iterations 6
GAMG:  Solving for p, Initial residual = 0.0409176, Final residual = 0.000273868, No Iterations 7
time step continuity errors : sum local = 2.52268e-05, global = -1.56731e-06, cumulative = -0.000809581
smoothSolver:  Solving for omega, Initial residual = 0.000161212, Final residual = 8.23138e-07, No Iterations 4
smoothSolver:  Solving for k, Initial residual = 0.00765048, Final residual = 3.80135e-05, No Iterations 3
ExecutionTime = 15 s  ClockTime = 15 s

Time = 89

smoothSolver:  Solving for Ux, Initial residual = 0.00738983, Final residual = 3.88833e-05, No Iterations 6
smoothSolver:  Solving for Uy, Initial residual = 0.0149468, Final residual = 9.54149e-05, No Iterations 6
GAMG:  Solving for p, Initial residual = 0.0413468, Final residual = 0.000333177, No Iterations 6
time step continuity errors : sum local = 3.05467e-05, global = -1.28358e-06, cumulative = -0.000810864
smoothSolver:  Solving for omega, Initial residual = 0.000158838, Final residual = 8.0706e-07, No Iterations 4
smoothSolver:  Solving for k, Initial residual = 0.00757743, Final residual = 3.75532e-05, No Iterations 3
ExecutionTime = 15.2 s  ClockTime = 15 s

Time = 90

smoothSolver:  Solving for Ux, Initial residual = 0.00734779, Final residual = 3.73912e-05, No Iterations 6
smoothSolver:  Solving for Uy, Initial residual = 0.0151153, Final residual = 9.44115e-05, No Iterations 6
GAMG:  Solving for p, Initial residual = 0.0424151, Final residual = 0.000396787, No Iterations 6
time step continuity errors : sum local = 3.62702e-05, global = -7.72488e-07, cumulative = -0.000811637
smoothSolver:  Solving for omega, Initial residual = 0.000154889, Final residual = 7.82681e-07, No Iterations 4
smoothSolver:  Solving for k, Initial residual = 0.00750612, Final residual = 3.70688e-05, No Iterations 3
ExecutionTime = 15.4 s  ClockTime = 15 s

forces forces write:
    sum of forces:
        pressure : (4.55682 149.436 -1.58647e-17)
        viscous  : (1.03838 0.0839837 -5.08228e-20)
        porous   : (0 0 0)
    sum of moments:
        pressure : (-7.18798e-16 1.73622e-17 14.9663)
        viscous  : (-1.18439e-18 3.50326e-18 -0.00811663)
        porous   : (0 0 0)

forceCoeffs forceCoeffs write:
    Cm    = 0.0763175
    Cd    = 0.0285469
    Cl    = 0.762858
    Cl(f) = 0.457747
    Cl(r) = 0.305112

Time = 91

smoothSolver:  Solving for Ux, Initial residual = 0.00732818, Final residual = 7.28439e-05, No Iterations 5
smoothSolver:  Solving for Uy, Initial residual = 0.015328, Final residual = 9.38043e-05, No Iterations 6
GAMG:  Solving for p, Initial residual = 0.0430778, Final residual = 0.000319406, No Iterations 7
time step continuity errors : sum local = 2.90926e-05, global = -5.34861e-07, cumulative = -0.000812172
smoothSolver:  Solving for omega, Initial residual = 0.000148134, Final residual = 7.50967e-07, No Iterations 4
smoothSolver:  Solving for k, Initial residual = 0.00743772, Final residual = 3.66057e-05, No Iterations 3
ExecutionTime = 15.61 s  ClockTime = 16 s

Time = 92

smoothSolver:  Solving for Ux, Initial residual = 0.00733632, Final residual = 7.11028e-05, No Iterations 5
smoothSolver:  Solving for Uy, Initial residual = 0.0155786, Final residual = 9.37091e-05, No Iterations 6
GAMG:  Solving for p, Initial residual = 0.0434681, Final residual = 0.00031927, No Iterations 7
time step continuity errors : sum local = 2.89857e-05, global = -5.60876e-07, cumulative = -0.000812733
smoothSolver:  Solving for omega, Initial residual = 0.000142058, Final residual = 7.13861e-07, No Iterations 4
smoothSolver:  Solving for k, Initial residual = 0.00737128, Final residual = 3.62034e-05, No Iterations 3
ExecutionTime = 15.81 s  ClockTime = 16 s

Time = 93

smoothSolver:  Solving for Ux, Initial residual = 0.00734547, Final residual = 6.97278e-05, No Iterations 5
smoothSolver:  Solving for Uy, Initial residual = 0.0158656, Final residual = 9.45176e-05, No Iterations 6
GAMG:  Solving for p, Initial residual = 0.0437658, Final residual = 0.000300965, No Iterations 7
time step continuity errors : sum local = 2.72697e-05, global = -6.85654e-07, cumulative = -0.000813418
smoothSolver:  Solving for omega, Initial residual = 0.000137157, Final residual = 6.79487e-07, No Iterations 4
smoothSolver:  Solving for k, Initial residual = 0.0073099, Final residual = 3.58528e-05, No Iterations 3
ExecutionTime = 16.01 s  ClockTime = 16 s

Time = 94

smoothSolver:  Solving for Ux, Initial residual = 0.00736229, Final residual = 6.87446e-05, No Iterations 5
smoothSolver:  Solving for Uy, Initial residual = 0.0161847, Final residual = 9.59432e-05, No Iterations 6
GAMG:  Solving for p, Initial residual = 0.0439081, Final residual = 0.000275865, No Iterations 7
time step continuity errors : sum local = 2.49291e-05, global = -7.6048e-07, cumulative = -0.000814179
smoothSolver:  Solving for omega, Initial residual = 0.000132576, Final residual = 6.46358e-07, No Iterations 4
smoothSolver:  Solving for k, Initial residual = 0.00725359, Final residual = 3.55116e-05, No Iterations 3
ExecutionTime = 16.22 s  ClockTime = 16 s

Time = 95

smoothSolver:  Solving for Ux, Initial residual = 0.00739505, Final residual = 6.80731e-05, No Iterations 5
smoothSolver:  Solving for Uy, Initial residual = 0.0165095, Final residual = 9.77536e-05, No Iterations 6
GAMG:  Solving for p, Initial residual = 0.045556, Final residual = 0.000388509, No Iterations 6
time step continuity errors : sum local = 3.48934e-05, global = -7.67551e-07, cumulative = -0.000814946
smoothSolver:  Solving for omega, Initial residual = 0.000130382, Final residual = 6.29083e-07, No Iterations 4
smoothSolver:  Solving for k, Initial residual = 0.00720135, Final residual = 3.5215e-05, No Iterations 3
ExecutionTime = 16.41 s  ClockTime = 16 s

Time = 96

smoothSolver:  Solving for Ux, Initial residual = 0.00743223, Final residual = 6.7399e-05, No Iterations 5
smoothSolver:  Solving for Uy, Initial residual = 0.016822, Final residual = 9.93506e-05, No Iterations 6
GAMG:  Solving for p, Initial residual = 0.0448865, Final residual = 0.000403861, No Iterations 6
time step continuity errors : sum local = 3.58297e-05, global = -8.04647e-07, cumulative = -0.000815751
smoothSolver:  Solving for omega, Initial residual = 0.000129086, Final residual = 6.21662e-07, No Iterations 4
smoothSolver:  Solving for k, Initial residual = 0.00714812, Final residual = 3.49823e-05, No Iterations 3
ExecutionTime = 16.62 s  ClockTime = 17 s

Time = 97

smoothSolver:  Solving for Ux, Initial residual = 0.0074697, Final residual = 6.69026e-05, No Iterations 5
smoothSolver:  Solving for Uy, Initial residual = 0.0171234, Final residual = 0.000101017, No Iterations 6
GAMG:  Solving for p, Initial residual = 0.0451917, Final residual = 0.000279092, No Iterations 7
time step continuity errors : sum local = 2.43934e-05, global = -8.82041e-07, cumulative = -0.000816633
smoothSolver:  Solving for omega, Initial residual = 0.000127019, Final residual = 6.22594e-07, No Iterations 4
smoothSolver:  Solving for k, Initial residual = 0.0070954, Final residual = 3.48043e-05, No Iterations 3
ExecutionTime = 16.82 s  ClockTime = 17 s

Time = 98

smoothSolver:  Solving for Ux, Initial residual = 0.00750063, Final residual = 6.61379e-05, No Iterations 5
smoothSolver:  Solving for Uy, Initial residual = 0.0173659, Final residual = 0.000102056, No Iterations 6
GAMG:  Solving for p, Initial residual = 0.045669, Final residual = 0.000291296, No Iterations 7
time step continuity errors : sum local = 2.50603e-05, global = -8.35556e-07, cumulative = -0.000817469
smoothSolver:  Solving for omega, Initial residual = 0.000125356, Final residual = 6.19122e-07, No Iterations 4
smoothSolver:  Solving for k, Initial residual = 0.00704136, Final residual = 3.46462e-05, No Iterations 3
ExecutionTime = 17.07 s  ClockTime = 17 s

Time = 99

smoothSolver:  Solving for Ux, Initial residual = 0.00751054, Final residual = 6.522e-05, No Iterations 5
smoothSolver:  Solving for Uy, Initial residual = 0.0174995, Final residual = 0.000101976, No Iterations 6
GAMG:  Solving for p, Initial residual = 0.0461558, Final residual = 0.00030217, No Iterations 7
time step continuity errors : sum local = 2.57185e-05, global = -6.61895e-07, cumulative = -0.000818131
smoothSolver:  Solving for omega, Initial residual = 0.000123291, Final residual = 6.14973e-07, No Iterations 4
smoothSolver:  Solving for k, Initial residual = 0.00698555, Final residual = 3.44869e-05, No Iterations 3
ExecutionTime = 17.32 s  ClockTime = 17 s

Time = 100

smoothSolver:  Solving for Ux, Initial residual = 0.00751083, Final residual = 6.42789e-05, No Iterations 5
smoothSolver:  Solving for Uy, Initial residual = 0.0175754, Final residual = 0.000101772, No Iterations 6
GAMG:  Solving for p, Initial residual = 0.0458677, Final residual = 0.000302498, No Iterations 7
time step continuity errors : sum local = 2.55266e-05, global = -4.72235e-07, cumulative = -0.000818603
smoothSolver:  Solving for omega, Initial residual = 0.000120844, Final residual = 6.13476e-07, No Iterations 4
smoothSolver:  Solving for k, Initial residual = 0.00692694, Final residual = 3.43631e-05, No Iterations 3
ExecutionTime = 17.57 s  ClockTime = 18 s

forces forces write:
    sum of forces:
        pressure : (2.08057 124.62 -1.09201e-17)
        viscous  : (1.08748 0.0595396 -1.25139e-20)
        porous   : (0 0 0)
    sum of moments:
        pressure : (-5.70454e-16 1.26622e-17 6.38235)
        viscous  : (-9.598e-19 3.74235e-18 -0.0171018)
        porous   : (0 0 0)

forceCoeffs forceCoeffs write:
    Cm    = 0.0324757
    Cd    = 0.0161635
    Cl    = 0.636122
    Cl(f) = 0.350537
    Cl(r) = 0.285585

yPlus yPlus write:
    writing object yPlus
    patch wing_main y+ : min = 74.5383, max = 270.305, average = 176.85
    patch flap y+ : min = 80.0243, max = 221.209, average = 144.893

Time = 101

smoothSolver:  Solving for Ux, Initial residual = 0.00750762, Final residual = 6.33161e-05, No Iterations 5
smoothSolver:  Solving for Uy, Initial residual = 0.0175935, Final residual = 0.000101001, No Iterations 6
GAMG:  Solving for p, Initial residual = 0.0448775, Final residual = 0.00029182, No Iterations 7
time step continuity errors : sum local = 2.44341e-05, global = -3.83187e-07, cumulative = -0.000818986
smoothSolver:  Solving for omega, Initial residual = 0.000118746, Final residual = 6.05981e-07, No Iterations 4
smoothSolver:  Solving for k, Initial residual = 0.00686677, Final residual = 3.41956e-05, No Iterations 3
ExecutionTime = 17.85 s  ClockTime = 18 s

Time = 102

smoothSolver:  Solving for Ux, Initial residual = 0.00749375, Final residual = 6.24601e-05, No Iterations 5
smoothSolver:  Solving for Uy, Initial residual = 0.0175426, Final residual = 9.94518e-05, No Iterations 6
GAMG:  Solving for p, Initial residual = 0.0446445, Final residual = 0.000426293, No Iterations 6
time step continuity errors : sum local = 3.5376e-05, global = -3.93554e-07, cumulative = -0.000819379
smoothSolver:  Solving for omega, Initial residual = 0.000116353, Final residual = 6.02506e-07, No Iterations 4
smoothSolver:  Solving for k, Initial residual = 0.0068055, Final residual = 3.40099e-05, No Iterations 3
ExecutionTime = 18.09 s  ClockTime = 18 s

Time = 103

smoothSolver:  Solving for Ux, Initial residual = 0.00746824, Final residual = 6.16739e-05, No Iterations 5
smoothSolver:  Solving for Uy, Initial residual = 0.0174476, Final residual = 9.77502e-05, No Iterations 6
GAMG:  Solving for p, Initial residual = 0.0449248, Final residual = 0.000306273, No Iterations 7
time step continuity errors : sum local = 2.51851e-05, global = -3.49933e-07, cumulative = -0.000819729
smoothSolver:  Solving for omega, Initial residual = 0.000114725, Final residual = 5.97759e-07, No Iterations 4
smoothSolver:  Solving for k, Initial residual = 0.00674424, Final residual = 3.38641e-05, No Iterations 3
ExecutionTime = 18.33 s  ClockTime = 18 s

Time = 104

smoothSolver:  Solving for Ux, Initial residual = 0.00745055, Final residual = 6.10345e-05, No Iterations 5
smoothSolver:  Solving for Uy, Initial residual = 0.0173391, Final residual = 9.69366e-05, No Iterations 6
GAMG:  Solving for p, Initial residual = 0.0453824, Final residual = 0.000411067, No Iterations 6
time step continuity errors : sum local = 3.35007e-05, global = -2.76195e-07, cumulative = -0.000820006
smoothSolver:  Solving for omega, Initial residual = 0.00011341, Final residual = 5.97518e-07, No Iterations 4
smoothSolver:  Solving for k, Initial residual = 0.00668673, Final residual = 3.37269e-05, No Iterations 3
ExecutionTime = 18.58 s  ClockTime = 19 s

Time = 105

smoothSolver:  Solving for Ux, Initial residual = 0.00744013, Final residual = 6.05929e-05, No Iterations 5
smoothSolver:  Solving for Uy, Initial residual = 0.0172081, Final residual = 9.66162e-05, No Iterations 6
GAMG:  Solving for p, Initial residual = 0.0454786, Final residual = 0.000348308, No Iterations 6
time step continuity errors : sum local = 2.80967e-05, global = -2.14327e-07, cumulative = -0.00082022
smoothSolver:  Solving for omega, Initial residual = 0.000111249, Final residual = 5.99155e-07, No Iterations 4
smoothSolver:  Solving for k, Initial residual = 0.00663194, Final residual = 3.36057e-05, No Iterations 3
ExecutionTime = 18.8 s  ClockTime = 19 s

Time = 106

smoothSolver:  Solving for Ux, Initial residual = 0.00744208, Final residual = 6.01333e-05, No Iterations 5
smoothSolver:  Solving for Uy, Initial residual = 0.0170514, Final residual = 9.62194e-05, No Iterations 6
GAMG:  Solving for p, Initial residual = 0.0458198, Final residual = 0.000455064, No Iterations 5
time step continuity errors : sum local = 3.63163e-05, global = -2.65865e-07, cumulative = -0.000820486
smoothSolver:  Solving for omega, Initial residual = 0.00010875, Final residual = 5.92968e-07, No Iterations 4
smoothSolver:  Solving for k, Initial residual = 0.00657542, Final residual = 3.35216e-05, No Iterations 3
ExecutionTime = 19 s  ClockTime = 19 s

Time = 107

smoothSolver:  Solving for Ux, Initial residual = 0.00745048, Final residual = 5.99045e-05, No Iterations 5
smoothSolver:  Solving for Uy, Initial residual = 0.0168753, Final residual = 9.52823e-05, No Iterations 6
GAMG:  Solving for p, Initial residual = 0.0451438, Final residual = 0.000425053, No Iterations 6
[...]

        phi
        meshPhi

    Reconstructing surfaceVectorFields

        Uf

Reconstructing point fields

    Reconstructing pointVectorFields

        pointDisplacement

No point fields

No lagrangian fields

Time = 1.91

Reconstructing FV fields

    Reconstructing volScalarFields

        nut
        p
        k
        omega

    Reconstructing volVectorFields

        U

    Reconstructing surfaceScalarFields

        phi
        meshPhi

    Reconstructing surfaceVectorFields

        Uf

Reconstructing point fields

    Reconstructing pointVectorFields

        pointDisplacement

No point fields

No lagrangian fields

Time = 1.912

Reconstructing FV fields

    Reconstructing volScalarFields

        nut
        p
        k
        omega

    Reconstructing volVectorFields

        U

    Reconstructing surfaceScalarFields

        phi
        meshPhi

    Reconstructing surfaceVectorFields

        Uf

Reconstructing point fields

    Reconstructing pointVectorFields

        pointDisplacement

No point fields

No lagrangian fields

Time = 1.914

Reconstructing FV fields

    Reconstructing volScalarFields

        nut
        p
        k
        omega

    Reconstructing volVectorFields

        U

    Reconstructing surfaceScalarFields

        phi
        meshPhi

    Reconstructing surfaceVectorFields

        Uf

Reconstructing point fields

    Reconstructing pointVectorFields

        pointDisplacement

No point fields

No lagrangian fields

Time = 1.916

Reconstructing FV fields

    Reconstructing volScalarFields

        nut
        p
        k
        omega

    Reconstructing volVectorFields

        U

    Reconstructing surfaceScalarFields

        phi
        meshPhi

    Reconstructing surfaceVectorFields

        Uf

Reconstructing point fields

    Reconstructing pointVectorFields

        pointDisplacement

No point fields

No lagrangian fields

Time = 1.918

Reconstructing FV fields

    Reconstructing volScalarFields

        nut
        p
        k
        omega

    Reconstructing volVectorFields

        U

    Reconstructing surfaceScalarFields

        phi
        meshPhi

    Reconstructing surfaceVectorFields

        Uf

Reconstructing point fields

    Reconstructing pointVectorFields

        pointDisplacement

No point fields

No lagrangian fields

Time = 1.92

Reconstructing FV fields

    Reconstructing volScalarFields

        nut
        p
        k
        omega

    Reconstructing volVectorFields

        U

    Reconstructing surfaceScalarFields

        phi
        meshPhi

    Reconstructing surfaceVectorFields

        Uf

Reconstructing point fields

    Reconstructing pointVectorFields

        pointDisplacement

No point fields

No lagrangian fields

Time = 1.922

Reconstructing FV fields

    Reconstructing volScalarFields

        nut
        p
        k
        omega

    Reconstructing volVectorFields

        U

    Reconstructing surfaceScalarFields

        phi
        meshPhi

    Reconstructing surfaceVectorFields

        Uf

Reconstructing point fields

    Reconstructing pointVectorFields

        pointDisplacement

No point fields

No lagrangian fields

Time = 1.924

Reconstructing FV fields

    Reconstructing volScalarFields

        nut
        p
        k
        omega

    Reconstructing volVectorFields

        U

    Reconstructing surfaceScalarFields

        phi
        meshPhi

    Reconstructing surfaceVectorFields

        Uf

Reconstructing point fields

    Reconstructing pointVectorFields

        pointDisplacement

No point fields

No lagrangian fields

Time = 1.926

Reconstructing FV fields

    Reconstructing volScalarFields

        nut
        p
        k
        omega

    Reconstructing volVectorFields

        U

    Reconstructing surfaceScalarFields

        phi
        meshPhi

    Reconstructing surfaceVectorFields

        Uf

Reconstructing point fields

    Reconstructing pointVectorFields

        pointDisplacement

No point fields

No lagrangian fields

Time = 1.928

Reconstructing FV fields

    Reconstructing volScalarFields

        nut
        p
        k
        omega

    Reconstructing volVectorFields

        U

    Reconstructing surfaceScalarFields

        phi
        meshPhi

    Reconstructing surfaceVectorFields

        Uf

Reconstructing point fields

    Reconstructing pointVectorFields

        pointDisplacement

No point fields

No lagrangian fields

Time = 1.93

Reconstructing FV fields

    Reconstructing volScalarFields

        nut
        p
        k
        omega

    Reconstructing volVectorFields

        U

    Reconstructing surfaceScalarFields

        phi
        meshPhi

    Reconstructing surfaceVectorFields

        Uf

Reconstructing point fields

    Reconstructing pointVectorFields

        pointDisplacement

No point fields

No lagrangian fields

Time = 1.932

Reconstructing FV fields

    Reconstructing volScalarFields

        nut
        p
        k
        omega

    Reconstructing volVectorFields

        U

    Reconstructing surfaceScalarFields

        phi
        meshPhi

    Reconstructing surfaceVectorFields

        Uf

Reconstructing point fields

    Reconstructing pointVectorFields

        pointDisplacement

No point fields

No lagrangian fields

Time = 1.934

Reconstructing FV fields

    Reconstructing volScalarFields

        nut
        p
        k
        omega

    Reconstructing volVectorFields

        U

    Reconstructing surfaceScalarFields

        phi
        meshPhi

    Reconstructing surfaceVectorFields

        Uf

Reconstructing point fields

    Reconstructing pointVectorFields

        pointDisplacement

No point fields

No lagrangian fields

Time = 1.936

Reconstructing FV fields

    Reconstructing volScalarFields

        nut
        p
        k
        omega

    Reconstructing volVectorFields

        U

    Reconstructing surfaceScalarFields

        phi
        meshPhi

    Reconstructing surfaceVectorFields

        Uf

Reconstructing point fields

    Reconstructing pointVectorFields

        pointDisplacement

No point fields

No lagrangian fields

Time = 1.938

Reconstructing FV fields

    Reconstructing volScalarFields

        nut
        p
        k
        omega

    Reconstructing volVectorFields

        U

    Reconstructing surfaceScalarFields

        phi
        meshPhi

    Reconstructing surfaceVectorFields

        Uf

Reconstructing point fields

    Reconstructing pointVectorFields

        pointDisplacement

No point fields

No lagrangian fields

Time = 1.94

Reconstructing FV fields

    Reconstructing volScalarFields

        nut
        p
        k
        omega

    Reconstructing volVectorFields

        U

    Reconstructing surfaceScalarFields

        phi
        meshPhi

    Reconstructing surfaceVectorFields

        Uf

Reconstructing point fields

    Reconstructing pointVectorFields

        pointDisplacement

No point fields

No lagrangian fields

Time = 1.942

Reconstructing FV fields

    Reconstructing volScalarFields

        nut
        p
        k
        omega

    Reconstructing volVectorFields

        U

    Reconstructing surfaceScalarFields

        phi
        meshPhi

    Reconstructing surfaceVectorFields

        Uf

Reconstructing point fields

    Reconstructing pointVectorFields

        pointDisplacement

No point fields

No lagrangian fields

Time = 1.944

Reconstructing FV fields

    Reconstructing volScalarFields

        nut
        p
        k
        omega

    Reconstructing volVectorFields

        U

    Reconstructing surfaceScalarFields

        phi
        meshPhi

    Reconstructing surfaceVectorFields

        Uf

Reconstructing point fields

    Reconstructing pointVectorFields

        pointDisplacement

No point fields

No lagrangian fields

Time = 1.946

Reconstructing FV fields

    Reconstructing volScalarFields

        nut
        p
        k
        omega

    Reconstructing volVectorFields

        U

    Reconstructing surfaceScalarFields

        phi
        meshPhi

    Reconstructing surfaceVectorFields

        Uf

Reconstructing point fields

    Reconstructing pointVectorFields

        pointDisplacement

No point fields

No lagrangian fields

Time = 1.948

Reconstructing FV fields

    Reconstructing volScalarFields

        nut
        p
        k
        omega

    Reconstructing volVectorFields

        U

    Reconstructing surfaceScalarFields

        phi
        meshPhi

    Reconstructing surfaceVectorFields

        Uf

Reconstructing point fields

    Reconstructing pointVectorFields

        pointDisplacement

No point fields

No lagrangian fields

Time = 1.95

Reconstructing FV fields

    Reconstructing volScalarFields

        nut
        p
        k
        omega

    Reconstructing volVectorFields

        U

    Reconstructing surfaceScalarFields

        phi
        meshPhi

    Reconstructing surfaceVectorFields

        Uf

Reconstructing point fields

    Reconstructing pointVectorFields

        pointDisplacement

No point fields

No lagrangian fields

Time = 1.952

Reconstructing FV fields

    Reconstructing volScalarFields

        nut
        p
        k
        omega

    Reconstructing volVectorFields

        U

    Reconstructing surfaceScalarFields

        phi
        meshPhi

    Reconstructing surfaceVectorFields

        Uf

Reconstructing point fields

    Reconstructing pointVectorFields

        pointDisplacement

No point fields

No lagrangian fields

Time = 1.954

Reconstructing FV fields

    Reconstructing volScalarFields

        nut
        p
        k
        omega

    Reconstructing volVectorFields

        U

    Reconstructing surfaceScalarFields

        phi
        meshPhi

    Reconstructing surfaceVectorFields

        Uf

Reconstructing point fields

    Reconstructing pointVectorFields

        pointDisplacement

No point fields

No lagrangian fields

Time = 1.956

Reconstructing FV fields

    Reconstructing volScalarFields

        nut
        p
        k
        omega

    Reconstructing volVectorFields

        U

    Reconstructing surfaceScalarFields

        phi
        meshPhi

    Reconstructing surfaceVectorFields

        Uf

Reconstructing point fields

    Reconstructing pointVectorFields

        pointDisplacement

No point fields

No lagrangian fields

Time = 1.958

Reconstructing FV fields

    Reconstructing volScalarFields

        nut
        p
        k
        omega

    Reconstructing volVectorFields

        U

    Reconstructing surfaceScalarFields

        phi
        meshPhi

    Reconstructing surfaceVectorFields

        Uf

Reconstructing point fields

    Reconstructing pointVectorFields

        pointDisplacement

No point fields

No lagrangian fields

Time = 1.96

Reconstructing FV fields

    Reconstructing volScalarFields

        nut
        p
        k
        omega

    Reconstructing volVectorFields

        U

    Reconstructing surfaceScalarFields

        phi
        meshPhi

    Reconstructing surfaceVectorFields

        Uf

Reconstructing point fields

    Reconstructing pointVectorFields

        pointDisplacement

No point fields

No lagrangian fields

Time = 1.962

Reconstructing FV fields

    Reconstructing volScalarFields

        nut
        p
        k
        omega

    Reconstructing volVectorFields

        U

    Reconstructing surfaceScalarFields

        phi
        meshPhi

    Reconstructing surfaceVectorFields

        Uf

Reconstructing point fields

    Reconstructing pointVectorFields

        pointDisplacement

No point fields

No lagrangian fields

Time = 1.964

Reconstructing FV fields

    Reconstructing volScalarFields

        nut
        p
        k
        omega

    Reconstructing volVectorFields

        U

    Reconstructing surfaceScalarFields

        phi
        meshPhi

    Reconstructing surfaceVectorFields

        Uf

Reconstructing point fields

    Reconstructing pointVectorFields

        pointDisplacement

No point fields

No lagrangian fields

Time = 1.966

Reconstructing FV fields

    Reconstructing volScalarFields

        nut
        p
        k
        omega

    Reconstructing volVectorFields

        U

    Reconstructing surfaceScalarFields

        phi
        meshPhi

    Reconstructing surfaceVectorFields

        Uf

Reconstructing point fields

    Reconstructing pointVectorFields

        pointDisplacement

No point fields

No lagrangian fields

Time = 1.968

Reconstructing FV fields

    Reconstructing volScalarFields

        nut
        p
        k
        omega

    Reconstructing volVectorFields

        U

    Reconstructing surfaceScalarFields

        phi
        meshPhi

    Reconstructing surfaceVectorFields

        Uf

Reconstructing point fields

    Reconstructing pointVectorFields

        pointDisplacement

No point fields

No lagrangian fields

Time = 1.97

Reconstructing FV fields

    Reconstructing volScalarFields

        nut
        p
        k
        omega

    Reconstructing volVectorFields

        U

    Reconstructing surfaceScalarFields

        phi
        meshPhi

    Reconstructing surfaceVectorFields

        Uf

Reconstructing point fields

    Reconstructing pointVectorFields

        pointDisplacement

No point fields

No lagrangian fields

Time = 1.972

Reconstructing FV fields

    Reconstructing volScalarFields

        nut
        p
        k
        omega

    Reconstructing volVectorFields

        U

    Reconstructing surfaceScalarFields

        phi
        meshPhi

    Reconstructing surfaceVectorFields

        Uf

Reconstructing point fields

    Reconstructing pointVectorFields

        pointDisplacement

No point fields

No lagrangian fields

Time = 1.974

Reconstructing FV fields

    Reconstructing volScalarFields

        nut
        p
        k
        omega

    Reconstructing volVectorFields

        U

    Reconstructing surfaceScalarFields

        phi
        meshPhi

    Reconstructing surfaceVectorFields

        Uf

Reconstructing point fields

    Reconstructing pointVectorFields

        pointDisplacement

No point fields

No lagrangian fields

Time = 1.976

Reconstructing FV fields

    Reconstructing volScalarFields

        nut
        p
        k
        omega

    Reconstructing volVectorFields

        U

    Reconstructing surfaceScalarFields

        phi
        meshPhi

    Reconstructing surfaceVectorFields

        Uf

Reconstructing point fields

    Reconstructing pointVectorFields

        pointDisplacement

No point fields

No lagrangian fields

Time = 1.978

Reconstructing FV fields

    Reconstructing volScalarFields

        nut
        p
        k
        omega

    Reconstructing volVectorFields

        U

    Reconstructing surfaceScalarFields

        phi
        meshPhi

    Reconstructing surfaceVectorFields

        Uf

Reconstructing point fields

    Reconstructing pointVectorFields

        pointDisplacement

No point fields

No lagrangian fields

Time = 1.98

Reconstructing FV fields

    Reconstructing volScalarFields

        nut
        p
        k
        omega

    Reconstructing volVectorFields

        U

    Reconstructing surfaceScalarFields

        phi
        meshPhi

    Reconstructing surfaceVectorFields

        Uf

Reconstructing point fields

    Reconstructing pointVectorFields

        pointDisplacement

No point fields

No lagrangian fields

Time = 1.982

Reconstructing FV fields

    Reconstructing volScalarFields

        nut
        p
        k
        omega

    Reconstructing volVectorFields

        U

    Reconstructing surfaceScalarFields

        phi
        meshPhi

    Reconstructing surfaceVectorFields

        Uf

Reconstructing point fields

    Reconstructing pointVectorFields

        pointDisplacement

No point fields

No lagrangian fields

Time = 1.984

Reconstructing FV fields

    Reconstructing volScalarFields

        nut
        p
        k
        omega

    Reconstructing volVectorFields

        U

    Reconstructing surfaceScalarFields

        phi
        meshPhi

    Reconstructing surfaceVectorFields

        Uf

Reconstructing point fields

    Reconstructing pointVectorFields

        pointDisplacement

No point fields

No lagrangian fields

Time = 1.986

Reconstructing FV fields

    Reconstructing volScalarFields

        nut
        p
        k
        omega

    Reconstructing volVectorFields

        U

    Reconstructing surfaceScalarFields

        phi
        meshPhi

    Reconstructing surfaceVectorFields

        Uf

Reconstructing point fields

    Reconstructing pointVectorFields

        pointDisplacement

No point fields

No lagrangian fields

Time = 1.988

Reconstructing FV fields

    Reconstructing volScalarFields

        nut
        p
        k
        omega

    Reconstructing volVectorFields

        U

    Reconstructing surfaceScalarFields

        phi
        meshPhi

    Reconstructing surfaceVectorFields

        Uf

Reconstructing point fields

    Reconstructing pointVectorFields

        pointDisplacement

No point fields

No lagrangian fields

Time = 1.99

Reconstructing FV fields

    Reconstructing volScalarFields

        nut
        p
        k
        omega

    Reconstructing volVectorFields

        U

    Reconstructing surfaceScalarFields

        phi
        meshPhi

    Reconstructing surfaceVectorFields

        Uf

Reconstructing point fields

    Reconstructing pointVectorFields

        pointDisplacement

No point fields

No lagrangian fields

Time = 1.992

Reconstructing FV fields

    Reconstructing volScalarFields

        nut
        p
        k
        omega

    Reconstructing volVectorFields

        U

    Reconstructing surfaceScalarFields

        phi
        meshPhi

    Reconstructing surfaceVectorFields

        Uf

Reconstructing point fields

    Reconstructing pointVectorFields

        pointDisplacement

No point fields

No lagrangian fields

Time = 1.994

Reconstructing FV fields

    Reconstructing volScalarFields

        nut
        p
        k
        omega

    Reconstructing volVectorFields

        U

    Reconstructing surfaceScalarFields

        phi
        meshPhi

    Reconstructing surfaceVectorFields

        Uf

Reconstructing point fields

    Reconstructing pointVectorFields

        pointDisplacement

No point fields

No lagrangian fields

Time = 1.996

Reconstructing FV fields

    Reconstructing volScalarFields

        nut
        p
        k
        omega

    Reconstructing volVectorFields

        U

    Reconstructing surfaceScalarFields

        phi
        meshPhi

    Reconstructing surfaceVectorFields

        Uf

Reconstructing point fields

    Reconstructing pointVectorFields

        pointDisplacement

No point fields

No lagrangian fields

Time = 1.998

Reconstructing FV fields

    Reconstructing volScalarFields

        nut
        p
        k
        omega

    Reconstructing volVectorFields

        U

    Reconstructing surfaceScalarFields

        phi
        meshPhi

    Reconstructing surfaceVectorFields

        Uf

Reconstructing point fields

    Reconstructing pointVectorFields

        pointDisplacement

No point fields

No lagrangian fields

Time = 2

Reconstructing FV fields

    Reconstructing volScalarFields

        nut
        p
        k
        omega

    Reconstructing volVectorFields

        U

    Reconstructing surfaceScalarFields

        phi
        meshPhi

    Reconstructing surfaceVectorFields

        Uf

Reconstructing point fields

    Reconstructing pointVectorFields

        pointDisplacement

No point fields

No lagrangian fields


End

Reading forces up to t=2.000 s ...
  Loaded 30019 force samples, t=[0.00001, 2.00000] s
  Replayed 1000 windows, final: h=-8.83 mm  α=0.73°
Saved → /work/u10677113/NACA2312/wingMotion2D_pimpleFoam/figures/gust_response.png

====== All stages complete. ======
